<?xml version="1.0" encoding="UTF-8"?>

<!-- generated on 2025-01-02 23:08:29.071208 by osmWebWizard.py v1_20_0+0002-343658e7c64
<configuration>
    <net-file value="C:\Users\Mahmo\Sumo\2025-01-02-23-07-51\osm.net.xml.gz"/>
    <output-trip-file value="C:\Users\Mahmo\Sumo\2025-01-02-23-07-51\osm.passenger.trips.xml"/>
    <route-file value="C:\Users\Mahmo\Sumo\2025-01-02-23-07-51\osm.passenger.rou.xml"/>
    <prefix value="veh"/>
    <trip-attributes value="departLane=&quot;best&quot;"/>
    <fringe-start-attributes value="departSpeed=&quot;max&quot;"/>
    <vehicle-class value="passenger"/>
    <lanes value="True"/>
    <fringe-factor value="20"/>
    <allow-fringe.min-length value="1000.0"/>
    <via-edge-types value="highway.motorway,highway.motorway_link,highway.trunk_link,highway.primary_link,highway.secondary_link,highway.tertiary_link"/>
    <min-distance value="300.0"/>
    <min-distance.fringe value="10.0"/>
    <remove-loops value="True"/>
    <validate value="True"/>
    <insertion-density value="30.0"/>
</configuration>
-->

<!-- generated on 2025-01-02 23:08:21 by Eclipse SUMO duarouter Version 1.20.0
<configuration xmlns:xsi="http://www.w3.org/2001/XMLSchema-instance" xsi:noNamespaceSchemaLocation="http://sumo.dlr.de/xsd/duarouterConfiguration.xsd">

    <input>
        <net-file value="C:\Users\Mahmo\Sumo\2025-01-02-23-07-51\osm.net.xml.gz"/>
        <route-files value="C:\Users\Mahmo\Sumo\2025-01-02-23-07-51\osm.passenger.trips.xml"/>
    </input>

    <output>
        <output-file value="C:\Users\Mahmo\Sumo\2025-01-02-23-07-51\osm.passenger.trips.xml.tmp"/>
        <alternatives-output value="NUL"/>
        <write-trips value="true"/>
    </output>

    <processing>
        <remove-loops value="true"/>
    </processing>

    <time>
        <begin value="0.0"/>
        <end value="3600.0"/>
    </time>

    <report>
        <no-warnings value="true"/>
        <ignore-errors value="true"/>
        <no-step-log value="true"/>
    </report>

</configuration>
-->

<routes xmlns:xsi="http://www.w3.org/2001/XMLSchema-instance" xsi:noNamespaceSchemaLocation="http://sumo.dlr.de/xsd/routes_file.xsd">
    <vType id="veh_passenger" vClass="passenger"/>
    <trip id="veh0" type="veh_passenger" depart="0.00" departLane="best" from="46653299#0" to="-117824437#2"/>
    <trip id="veh1" type="veh_passenger" depart="0.37" departLane="best" from="-769538141#3" to="-46696270"/>
    <trip id="veh3" type="veh_passenger" depart="1.11" departLane="best" departSpeed="max" from="694764610#0" to="-282210873#1"/>
    <trip id="veh4" type="veh_passenger" depart="1.48" departLane="best" from="515476886#12" to="-117824450#2"/>
    <trip id="veh5" type="veh_passenger" depart="1.85" departLane="best" from="-46708366" to="282210872#0"/>
    <trip id="veh6" type="veh_passenger" depart="2.22" departLane="best" from="-117824455#2" to="-46653297#8"/>
    <trip id="veh7" type="veh_passenger" depart="2.59" departLane="best" departSpeed="max" from="46676451#0" to="417343916#17"/>
    <trip id="veh8" type="veh_passenger" depart="2.96" departLane="best" from="-46708382#2" to="-417636975#2"/>
    <trip id="veh9" type="veh_passenger" depart="3.33" departLane="best" from="-503015615#7" to="117785727#3"/>
    <trip id="veh10" type="veh_passenger" depart="3.70" departLane="best" from="494954980#2" to="46677733#19"/>
    <trip id="veh11" type="veh_passenger" depart="4.07" departLane="best" from="117785752#3" to="-417627664#6"/>
    <trip id="veh12" type="veh_passenger" depart="4.44" departLane="best" departSpeed="max" from="805827661" to="117793351#1"/>
    <trip id="veh13" type="veh_passenger" depart="4.82" departLane="best" from="-345046977#6" to="-369687302"/>
    <trip id="veh14" type="veh_passenger" depart="5.19" departLane="best" departSpeed="max" from="59054230" to="417666602#3"/>
    <trip id="veh15" type="veh_passenger" depart="5.56" departLane="best" from="494954980#3" to="46709879#10"/>
    <trip id="veh16" type="veh_passenger" depart="5.93" departLane="best" from="38233669#3" to="921296494#1"/>
    <trip id="veh17" type="veh_passenger" depart="6.30" departLane="best" from="-129731301#0" to="417420118#2"/>
    <trip id="veh18" type="veh_passenger" depart="6.67" departLane="best" from="220545606#2" to="46620936#1"/>
    <trip id="veh19" type="veh_passenger" depart="7.04" departLane="best" from="59079492#0" to="-417627665#1"/>
    <trip id="veh20" type="veh_passenger" depart="7.41" departLane="best" from="46696336#8" to="166611663#4"/>
    <trip id="veh21" type="veh_passenger" depart="7.78" departLane="best" departSpeed="max" from="-46717700#1" to="802109992"/>
    <trip id="veh22" type="veh_passenger" depart="8.15" departLane="best" departSpeed="max" from="-234847822#1" to="-46707748#1"/>
    <trip id="veh23" type="veh_passenger" depart="8.52" departLane="best" from="-375138544#6" to="667260249#2"/>
    <trip id="veh24" type="veh_passenger" depart="8.89" departLane="best" from="46653279#2" to="129731380#2"/>
    <trip id="veh26" type="veh_passenger" depart="9.63" departLane="best" departSpeed="max" from="-674376955" to="803282765"/>
    <trip id="veh27" type="veh_passenger" depart="10.00" departLane="best" departSpeed="max" from="46676451#0" to="417718812#6"/>
    <trip id="veh28" type="veh_passenger" depart="10.37" departLane="best" from="-46620931#0" to="46709879#10"/>
    <trip id="veh29" type="veh_passenger" depart="10.74" departLane="best" from="417666604#1" to="174699387#1"/>
    <trip id="veh30" type="veh_passenger" depart="11.11" departLane="best" from="97537668#3" to="46623282#1"/>
    <trip id="veh31" type="veh_passenger" depart="11.48" departLane="best" from="417416324#4" to="46676451#7"/>
    <trip id="veh33" type="veh_passenger" depart="12.22" departLane="best" from="-46717703#1" to="117824454#4"/>
    <trip id="veh34" type="veh_passenger" depart="12.59" departLane="best" from="-920898001#1" to="-529594105#14"/>
    <trip id="veh35" type="veh_passenger" depart="12.96" departLane="best" from="-46696332#2" to="803639594"/>
    <trip id="veh36" type="veh_passenger" depart="13.33" departLane="best" departSpeed="max" from="660731155" to="-921534674#0"/>
    <trip id="veh37" type="veh_passenger" depart="13.70" departLane="best" departSpeed="max" from="46676451#0" to="177618264#3"/>
    <trip id="veh38" type="veh_passenger" depart="14.07" departLane="best" from="694764610#1" to="218877834#1"/>
    <trip id="veh39" type="veh_passenger" depart="14.45" departLane="best" departSpeed="max" from="-674376955" to="-46717703#3"/>
    <trip id="veh40" type="veh_passenger" depart="14.82" departLane="best" from="-417420128#2" to="503015615#7"/>
    <trip id="veh41" type="veh_passenger" depart="15.19" departLane="best" from="417627665#3" to="635753295#7"/>
    <trip id="veh42" type="veh_passenger" depart="15.56" departLane="best" from="474144217#3" to="-46696253#4"/>
    <trip id="veh43" type="veh_passenger" depart="15.93" departLane="best" departSpeed="max" from="999895348" to="282212608"/>
    <trip id="veh45" type="veh_passenger" depart="16.67" departLane="best" departSpeed="max" from="494954980#0" to="218448824#18"/>
    <trip id="veh46" type="veh_passenger" depart="17.04" departLane="best" from="-218722047#1" to="174699387#1"/>
    <trip id="veh47" type="veh_passenger" depart="17.41" departLane="best" from="218448824#13" to="379526747#0"/>
    <trip id="veh48" type="veh_passenger" depart="17.78" departLane="best" from="913880512#0" to="59054221"/>
    <trip id="veh49" type="veh_passenger" depart="18.15" departLane="best" from="117792379#2" to="46708366"/>
    <trip id="veh50" type="veh_passenger" depart="18.52" departLane="best" departSpeed="max" from="46677728#0" to="38233676#2"/>
    <trip id="veh51" type="veh_passenger" depart="18.89" departLane="best" departSpeed="max" from="-674376955" to="46623282#1-AddedOnRampEdge"/>
    <trip id="veh52" type="veh_passenger" depart="19.26" departLane="best" from="-38233804#8" to="218722045#3"/>
    <trip id="veh53" type="veh_passenger" depart="19.63" departLane="best" departSpeed="max" from="218790194" to="805307833"/>
    <trip id="veh54" type="veh_passenger" depart="20.00" departLane="best" departSpeed="max" from="660731155" to="-522325947#0"/>
    <trip id="veh55" type="veh_passenger" depart="20.37" departLane="best" from="282210868#3" to="-417723820"/>
    <trip id="veh56" type="veh_passenger" depart="20.74" departLane="best" departSpeed="max" from="694764610#0" to="59079477#0"/>
    <trip id="veh57" type="veh_passenger" depart="21.11" departLane="best" departSpeed="max" from="-804171131#1" to="46623282#1"/>
    <trip id="veh58" type="veh_passenger" depart="21.48" departLane="best" from="417718812#3" to="-417627646#0"/>
    <trip id="veh59" type="veh_passenger" depart="21.85" departLane="best" from="472042767#8" to="38233804#0"/>
    <trip id="veh60" type="veh_passenger" depart="22.22" departLane="best" from="494954974#3" to="38233666#6"/>
    <trip id="veh61" type="veh_passenger" depart="22.59" departLane="best" from="-117785727#3" to="117785740#3"/>
    <trip id="veh62" type="veh_passenger" depart="22.96" departLane="best" from="-117824442#1" to="801836215"/>
    <trip id="veh63" type="veh_passenger" depart="23.33" departLane="best" departSpeed="max" from="660731155" to="522490664#11"/>
    <trip id="veh64" type="veh_passenger" depart="23.70" departLane="best" from="-83336259#1" to="-192743549#1"/>
    <trip id="veh65" type="veh_passenger" depart="24.08" departLane="best" departSpeed="max" from="660731155" to="804171131#1"/>
    <trip id="veh66" type="veh_passenger" depart="24.45" departLane="best" from="-282212603#2" to="219835825#3"/>
    <trip id="veh69" type="veh_passenger" depart="25.56" departLane="best" from="219076292#7" to="417416329"/>
    <trip id="veh70" type="veh_passenger" depart="25.93" departLane="best" departSpeed="max" from="-674376955" to="59079477#1"/>
    <trip id="veh71" type="veh_passenger" depart="26.30" departLane="best" from="218448824#24" to="-46677728#0"/>
    <trip id="veh72" type="veh_passenger" depart="26.67" departLane="best" from="38233672#4" to="46709879#10"/>
    <trip id="veh73" type="veh_passenger" depart="27.04" departLane="best" from="46696246#1" to="-921534673#0"/>
    <trip id="veh74" type="veh_passenger" depart="27.41" departLane="best" from="988283555#1" to="46653293#2"/>
    <trip id="veh75" type="veh_passenger" depart="27.78" departLane="best" from="-218722047#0" to="375138528#2"/>
    <trip id="veh76" type="veh_passenger" depart="28.15" departLane="best" from="417416324#3" to="-46696320#2"/>
    <trip id="veh77" type="veh_passenger" depart="28.52" departLane="best" from="117785744#0" to="417636974#5"/>
    <trip id="veh78" type="veh_passenger" depart="28.89" departLane="best" from="-46717706#2" to="-46696263#0"/>
    <trip id="veh79" type="veh_passenger" depart="29.26" departLane="best" from="-218964975#1" to="46623282#1"/>
    <trip id="veh81" type="veh_passenger" depart="30.00" departLane="best" from="59079490#0" to="-218964975#9"/>
    <trip id="veh82" type="veh_passenger" depart="30.37" departLane="best" from="-47073339#1" to="46676451#11"/>
    <trip id="veh83" type="veh_passenger" depart="30.74" departLane="best" from="-46696338" to="-417420118#3"/>
    <trip id="veh86" type="veh_passenger" depart="31.85" departLane="best" from="-497984156#1" to="46620950#5"/>
    <trip id="veh87" type="veh_passenger" depart="32.22" departLane="best" from="-375138538" to="218681389#1"/>
    <trip id="veh88" type="veh_passenger" depart="32.59" departLane="best" from="218448824#25" to="218959908#3"/>
    <trip id="veh89" type="veh_passenger" depart="32.96" departLane="best" from="46709879#1" to="46676451#11"/>
    <trip id="veh90" type="veh_passenger" depart="33.34" departLane="best" departSpeed="max" from="921534674#0" to="-369687302"/>
    <trip id="veh91" type="veh_passenger" depart="33.71" departLane="best" from="177618265#5" to="117793355#7"/>
    <trip id="veh92" type="veh_passenger" depart="34.08" departLane="best" from="59079492#0" to="-46717709#1"/>
    <trip id="veh93" type="veh_passenger" depart="34.45" departLane="best" from="-46653308#0" to="218724606#4"/>
    <trip id="veh94" type="veh_passenger" depart="34.82" departLane="best" from="218448824#2" to="667260249#6"/>
    <trip id="veh95" type="veh_passenger" depart="35.19" departLane="best" from="218724606#2" to="59054221"/>
    <trip id="veh96" type="veh_passenger" depart="35.56" departLane="best" from="417343916#3" to="-174699389#2"/>
    <trip id="veh97" type="veh_passenger" depart="35.93" departLane="best" departSpeed="max" from="999895348" to="523170423#2"/>
    <trip id="veh98" type="veh_passenger" depart="36.30" departLane="best" from="884024785#5" to="801836215"/>
    <trip id="veh99" type="veh_passenger" depart="36.67" departLane="best" departSpeed="max" from="59054230" to="-417652009#0"/>
    <trip id="veh100" type="veh_passenger" depart="37.04" departLane="best" from="219835827#10" to="-46677729#6"/>
    <trip id="veh101" type="veh_passenger" depart="37.41" departLane="best" from="177618265#4" to="-192743556#2"/>
    <trip id="veh102" type="veh_passenger" depart="37.78" departLane="best" from="-129731380#1" to="97537668#2"/>
    <trip id="veh103" type="veh_passenger" depart="38.15" departLane="best" departSpeed="max" from="-674376955" to="-47073350#2"/>
    <trip id="veh104" type="veh_passenger" depart="38.52" departLane="best" departSpeed="max" from="218790194" to="218448824#2"/>
    <trip id="veh105" type="veh_passenger" depart="38.89" departLane="best" departSpeed="max" from="805827661" to="999895347"/>
    <trip id="veh106" type="veh_passenger" depart="39.26" departLane="best" from="417407344#1" to="46707750#0"/>
    <trip id="veh107" type="veh_passenger" depart="39.63" departLane="best" from="417646282#0" to="-804171183#2"/>
    <trip id="veh108" type="veh_passenger" depart="40.00" departLane="best" from="884024785#5" to="417627668#9"/>
    <trip id="veh109" type="veh_passenger" depart="40.37" departLane="best" from="38233676#4" to="46709879#6"/>
    <trip id="veh110" type="veh_passenger" depart="40.74" departLane="best" from="192760568#6" to="417635421#1"/>
    <trip id="veh111" type="veh_passenger" depart="41.11" departLane="best" from="282210877#1" to="59054218"/>
    <trip id="veh112" type="veh_passenger" depart="41.48" departLane="best" from="-417652016#0" to="884024785#0"/>
    <trip id="veh113" type="veh_passenger" depart="41.85" departLane="best" departSpeed="max" from="-234847822#1" to="46620939"/>
    <trip id="veh114" type="veh_passenger" depart="42.22" departLane="best" from="417646272#4" to="46676451#11"/>
    <trip id="veh115" type="veh_passenger" depart="42.59" departLane="best" departSpeed="max" from="-46717713#12" to="-38233804#6"/>
    <trip id="veh116" type="veh_passenger" depart="42.97" departLane="best" from="694764608" to="-46717703#0"/>
    <trip id="veh117" type="veh_passenger" depart="43.34" departLane="best" from="417646272#0" to="-46620940#0"/>
    <trip id="veh118" type="veh_passenger" depart="43.71" departLane="best" from="218448824#10" to="417635421#0"/>
    <trip id="veh119" type="veh_passenger" depart="44.08" departLane="best" from="375138535#4" to="803282741#3"/>
    <trip id="veh120" type="veh_passenger" depart="44.45" departLane="best" from="46676451#7" to="-805827661"/>
    <trip id="veh121" type="veh_passenger" depart="44.82" departLane="best" from="-921534667" to="46709879#8"/>
    <trip id="veh122" type="veh_passenger" depart="45.19" departLane="best" from="-219076293#1" to="218877834#1"/>
    <trip id="veh123" type="veh_passenger" depart="45.56" departLane="best" from="219076293#3" to="-46677729#1"/>
    <trip id="veh124" type="veh_passenger" depart="45.93" departLane="best" departSpeed="max" from="-674376955" to="802882372"/>
    <trip id="veh125" type="veh_passenger" depart="46.30" departLane="best" departSpeed="max" from="660731155" to="59079477#1"/>
    <trip id="veh127" type="veh_passenger" depart="47.04" departLane="best" from="537044061#0" to="46696253#0"/>
    <trip id="veh128" type="veh_passenger" depart="47.41" departLane="best" departSpeed="max" from="417723820" to="97537668#5"/>
    <trip id="veh129" type="veh_passenger" depart="47.78" departLane="best" departSpeed="max" from="46676451#0" to="117785738#4"/>
    <trip id="veh130" type="veh_passenger" depart="48.15" departLane="best" from="521766179#1" to="-805827660#3"/>
    <trip id="veh132" type="veh_passenger" depart="48.89" departLane="best" from="-417442002#3" to="-38233671#3"/>
    <trip id="veh133" type="veh_passenger" depart="49.26" departLane="best" from="-38233671#4" to="417420124#2"/>
    <trip id="veh134" type="veh_passenger" depart="49.63" departLane="best" departSpeed="max" from="-73989713#4" to="417666604#2"/>
    <trip id="veh135" type="veh_passenger" depart="50.00" departLane="best" departSpeed="max" from="46709879#0" to="-46653308#0"/>
    <trip id="veh136" type="veh_passenger" depart="50.37" departLane="best" from="46653271#1" to="-522325947#3"/>
    <trip id="veh137" type="veh_passenger" depart="50.74" departLane="best" departSpeed="max" from="59054230" to="-282212615#1"/>
    <trip id="veh138" type="veh_passenger" depart="51.11" departLane="best" from="515476886#8" to="-635536373#3"/>
    <trip id="veh139" type="veh_passenger" depart="51.48" departLane="best" from="117785743" to="46717713#12"/>
    <trip id="veh140" type="veh_passenger" depart="51.85" departLane="best" from="46653291#2" to="-503015615#1"/>
    <trip id="veh142" type="veh_passenger" depart="52.60" departLane="best" departSpeed="max" from="218681383#0" to="-117785743"/>
    <trip id="veh143" type="veh_passenger" depart="52.97" departLane="best" from="-234847816#4" to="59079490#0"/>
    <trip id="veh144" type="veh_passenger" depart="53.34" departLane="best" departSpeed="max" from="694764610#0" to="417343916#3"/>
    <trip id="veh145" type="veh_passenger" depart="53.71" departLane="best" from="561147022#1" to="-417635415#1"/>
    <trip id="veh147" type="veh_passenger" depart="54.45" departLane="best" from="-83336261#10" to="667260249#1"/>
    <trip id="veh148" type="veh_passenger" depart="54.82" departLane="best" departSpeed="max" from="494954980#0" to="59054221"/>
    <trip id="veh149" type="veh_passenger" depart="55.19" departLane="best" departSpeed="max" from="694764610#0" to="-46677728#0"/>
    <trip id="veh150" type="veh_passenger" depart="55.56" departLane="best" from="522325947#7" to="375138539#4"/>
    <trip id="veh151" type="veh_passenger" depart="55.93" departLane="best" from="-494954975#6" to="59079490#1-AddedOnRampEdge"/>
    <trip id="veh152" type="veh_passenger" depart="56.30" departLane="best" from="192728189#5" to="46620944#2"/>
    <trip id="veh153" type="veh_passenger" depart="56.67" departLane="best" from="417646278#1" to="801836215"/>
    <trip id="veh155" type="veh_passenger" depart="57.41" departLane="best" from="515476886#10" to="59079477#1"/>
    <trip id="veh156" type="veh_passenger" depart="57.78" departLane="best" from="-117824452#4" to="46709879#10"/>
    <trip id="veh158" type="veh_passenger" depart="58.52" departLane="best" departSpeed="max" from="494954980#0" to="59054224#12"/>
    <trip id="veh159" type="veh_passenger" depart="58.89" departLane="best" from="515476886#10" to="-525201134#0"/>
    <trip id="veh160" type="veh_passenger" depart="59.26" departLane="best" departSpeed="max" from="494954980#0" to="-375138546#4"/>
    <trip id="veh161" type="veh_passenger" depart="59.63" departLane="best" from="635753295#2" to="59054221"/>
    <trip id="veh162" type="veh_passenger" depart="60.00" departLane="best" from="-46717681#0" to="521766178#1"/>
    <trip id="veh163" type="veh_passenger" depart="60.37" departLane="best" from="218906059#10" to="-83336261#9"/>
    <trip id="veh164" type="veh_passenger" depart="60.74" departLane="best" departSpeed="max" from="494954980#0" to="46696332#0"/>
    <trip id="veh165" type="veh_passenger" depart="61.11" departLane="best" from="117824450#5" to="-46652615#0"/>
    <trip id="veh166" type="veh_passenger" depart="61.48" departLane="best" departSpeed="max" from="-999895349" to="59054224#13"/>
    <trip id="veh167" type="veh_passenger" depart="61.86" departLane="best" from="86096521#1" to="-669388481#1"/>
    <trip id="veh168" type="veh_passenger" depart="62.23" departLane="best" from="46653306#2" to="177618265#5"/>
    <trip id="veh169" type="veh_passenger" depart="62.60" departLane="best" departSpeed="max" from="921534673#0" to="38233676#10"/>
    <trip id="veh171" type="veh_passenger" depart="63.34" departLane="best" from="896202390#0" to="-417723820"/>
    <trip id="veh172" type="veh_passenger" depart="63.71" departLane="best" departSpeed="max" from="86096521#0" to="522435832#4"/>
    <trip id="veh173" type="veh_passenger" depart="64.08" departLane="best" from="-38233673#4" to="218722045#2"/>
    <trip id="veh174" type="veh_passenger" depart="64.45" departLane="best" from="46709879#0-AddedOffRampEdge" to="-921534674#0"/>
    <trip id="veh175" type="veh_passenger" depart="64.82" departLane="best" from="417666607" to="282212612#1"/>
    <trip id="veh176" type="veh_passenger" depart="65.19" departLane="best" from="166611670#2" to="-417627664#6"/>
    <trip id="veh177" type="veh_passenger" depart="65.56" departLane="best" from="-561151896#2" to="-46696274#1"/>
    <trip id="veh178" type="veh_passenger" depart="65.93" departLane="best" from="-117785738#3" to="801836215"/>
    <trip id="veh179" type="veh_passenger" depart="66.30" departLane="best" from="38233671#8" to="46707751#1"/>
    <trip id="veh181" type="veh_passenger" depart="67.04" departLane="best" from="117824448#2" to="-218964975#2"/>
    <trip id="veh182" type="veh_passenger" depart="67.41" departLane="best" from="46676451#2" to="117792350#0"/>
    <trip id="veh183" type="veh_passenger" depart="67.78" departLane="best" from="-913898996" to="-59054176#4"/>
    <trip id="veh184" type="veh_passenger" depart="68.15" departLane="best" departSpeed="max" from="46709879#0" to="-805827661"/>
    <trip id="veh185" type="veh_passenger" depart="68.52" departLane="best" from="-83336261#6" to="-192743556#2"/>
    <trip id="veh186" type="veh_passenger" depart="68.89" departLane="best" from="177618265#5" to="-804171133#0"/>
    <trip id="veh187" type="veh_passenger" depart="69.26" departLane="best" from="-417430591#0" to="218448824#10"/>
    <trip id="veh188" type="veh_passenger" depart="69.63" departLane="best" from="78061519#0" to="46676451#2"/>
    <trip id="veh189" type="veh_passenger" depart="70.00" departLane="best" departSpeed="max" from="694764610#0" to="432034143#1"/>
    <trip id="veh190" type="veh_passenger" depart="70.37" departLane="best" from="-804171133#3" to="417407344#0"/>
    <trip id="veh191" type="veh_passenger" depart="70.74" departLane="best" from="-117785727#2" to="-745593118#2"/>
    <trip id="veh192" type="veh_passenger" depart="71.11" departLane="best" departSpeed="max" from="218681383#0" to="-417635410#0"/>
    <trip id="veh193" type="veh_passenger" depart="71.49" departLane="best" departSpeed="max" from="46676451#0" to="-218906059#0"/>
    <trip id="veh195" type="veh_passenger" depart="72.23" departLane="best" from="219076292#1" to="674376955"/>
    <trip id="veh196" type="veh_passenger" depart="72.60" departLane="best" departSpeed="max" from="494954980#0" to="-417666571#4"/>
    <trip id="veh197" type="veh_passenger" depart="72.97" departLane="best" from="-282210873#0" to="345046983"/>
    <trip id="veh198" type="veh_passenger" depart="73.34" departLane="best" from="46652609#0" to="117793348#0"/>
    <trip id="veh199" type="veh_passenger" depart="73.71" departLane="best" from="521766184#1" to="46709879#7"/>
    <trip id="veh200" type="veh_passenger" depart="74.08" departLane="best" from="46676451#8" to="46696320#2"/>
    <trip id="veh201" type="veh_passenger" depart="74.45" departLane="best" from="-46677738#4" to="117823799#2"/>
    <trip id="veh203" type="veh_passenger" depart="75.19" departLane="best" departSpeed="max" from="59054230" to="-218969108"/>
    <trip id="veh204" type="veh_passenger" depart="75.56" departLane="best" from="-194455694#1" to="46623282#1"/>
    <trip id="veh205" type="veh_passenger" depart="75.93" departLane="best" from="-46677722#0" to="46677731#4"/>
    <trip id="veh206" type="veh_passenger" depart="76.30" departLane="best" from="264754562#5" to="-46717685#7"/>
    <trip id="veh208" type="veh_passenger" depart="77.04" departLane="best" from="38233671#10" to="218448824#30"/>
    <trip id="veh209" type="veh_passenger" depart="77.41" departLane="best" from="46620949#2" to="83336259#5"/>
    <trip id="veh210" type="veh_passenger" depart="77.78" departLane="best" departSpeed="max" from="375138527#0" to="-174699389#0"/>
    <trip id="veh211" type="veh_passenger" depart="78.15" departLane="best" from="522325947#4" to="59054214#1"/>
    <trip id="veh212" type="veh_passenger" depart="78.52" departLane="best" departSpeed="max" from="218790194" to="494954975#4"/>
    <trip id="veh213" type="veh_passenger" depart="78.89" departLane="best" from="46676451#4" to="97537668#6"/>
    <trip id="veh214" type="veh_passenger" depart="79.26" departLane="best" from="-417646278#1" to="-804171183#3"/>
    <trip id="veh215" type="veh_passenger" depart="79.63" departLane="best" departSpeed="max" from="694764610#0" to="417723814#0"/>
    <trip id="veh216" type="veh_passenger" depart="80.00" departLane="best" departSpeed="max" from="46709879#0" to="282210870#1"/>
    <trip id="veh217" type="veh_passenger" depart="80.37" departLane="best" from="522490672#4" to="-417405270#1"/>
    <trip id="veh218" type="veh_passenger" depart="80.75" departLane="best" departSpeed="max" from="694764610#0" to="46709879#2-AddedOnRampEdge"/>
    <trip id="veh219" type="veh_passenger" depart="81.12" departLane="best" from="219076292#3" to="-480579183"/>
    <trip id="veh220" type="veh_passenger" depart="81.49" departLane="best" from="-503015615#2" to="46623282#1"/>
    <trip id="veh221" type="veh_passenger" depart="81.86" departLane="best" from="474144217#1" to="375138539#4"/>
    <trip id="veh222" type="veh_passenger" depart="82.23" departLane="best" from="46623304#1" to="-563182532#2"/>
    <trip id="veh223" type="veh_passenger" depart="82.60" departLane="best" from="234847821#1" to="-745593118#0"/>
    <trip id="veh224" type="veh_passenger" depart="82.97" departLane="best" departSpeed="max" from="-73989713#4" to="1038940014"/>
    <trip id="veh225" type="veh_passenger" depart="83.34" departLane="best" from="38233673#4" to="-417434590#5"/>
    <trip id="veh226" type="veh_passenger" depart="83.71" departLane="best" from="-46717709#1" to="46677728#3"/>
    <trip id="veh227" type="veh_passenger" depart="84.08" departLane="best" from="-46707747#1" to="-194455697#4"/>
    <trip id="veh228" type="veh_passenger" depart="84.45" departLane="best" from="192743534#10" to="417343909#1"/>
    <trip id="veh229" type="veh_passenger" depart="84.82" departLane="best" from="194455697#2" to="46677720#1"/>
    <trip id="veh230" type="veh_passenger" depart="85.19" departLane="best" from="218448824#12" to="679004812"/>
    <trip id="veh231" type="veh_passenger" depart="85.56" departLane="best" from="417627665#0" to="-46677729#7"/>
    <trip id="veh232" type="veh_passenger" depart="85.93" departLane="best" departSpeed="max" from="59079488#0" to="46717703#3"/>
    <trip id="veh234" type="veh_passenger" depart="86.67" departLane="best" from="117793350#1" to="46709879#8-AddedOnRampEdge"/>
    <trip id="veh235" type="veh_passenger" depart="87.04" departLane="best" departSpeed="max" from="59079488#0" to="805307833"/>
    <trip id="veh236" type="veh_passenger" depart="87.41" departLane="best" from="921296494#11" to="46709879#5-AddedOnRampEdge"/>
    <trip id="veh237" type="veh_passenger" depart="87.78" departLane="best" from="38233805#4" to="417666602#0"/>
    <trip id="veh238" type="veh_passenger" depart="88.15" departLane="best" from="-46708382#3" to="-46696253#5"/>
    <trip id="veh239" type="veh_passenger" depart="88.52" departLane="best" from="218722045#14" to="117824447#1"/>
    <trip id="veh240" type="veh_passenger" depart="88.89" departLane="best" from="-117785738#4" to="46676451#3-AddedOffRampEdge"/>
    <trip id="veh241" type="veh_passenger" depart="89.26" departLane="best" from="180069551#7" to="417646282#12"/>
    <trip id="veh243" type="veh_passenger" depart="90.00" departLane="best" from="46620949#1" to="-117824442#8"/>
    <trip id="veh244" type="veh_passenger" depart="90.38" departLane="best" from="174699496#1" to="-417442002#2"/>
    <trip id="veh245" type="veh_passenger" depart="90.75" departLane="best" from="-117824455#6" to="46623305"/>
    <trip id="veh246" type="veh_passenger" depart="91.12" departLane="best" from="-417442005#4" to="218877834#1"/>
    <trip id="veh247" type="veh_passenger" depart="91.49" departLane="best" from="192728189#5" to="174699387#1"/>
    <trip id="veh248" type="veh_passenger" depart="91.86" departLane="best" from="-46696332#7" to="117785750#3"/>
    <trip id="veh249" type="veh_passenger" depart="92.23" departLane="best" from="472042767#11" to="174699387#1"/>
    <trip id="veh250" type="veh_passenger" depart="92.60" departLane="best" from="46717706#6" to="522490664#11"/>
    <trip id="veh251" type="veh_passenger" depart="92.97" departLane="best" from="-529594105#11" to="-282187787#0"/>
    <trip id="veh252" type="veh_passenger" depart="93.34" departLane="best" from="-117824442#1" to="38233804#1"/>
    <trip id="veh253" type="veh_passenger" depart="93.71" departLane="best" departSpeed="max" from="999895348" to="-117824450#4"/>
    <trip id="veh254" type="veh_passenger" depart="94.08" departLane="best" departSpeed="max" from="46676451#0" to="47073338#2"/>
    <trip id="veh255" type="veh_passenger" depart="94.45" departLane="best" departSpeed="max" from="46676451#0" to="46709879#9"/>