<?xml version="1.0" encoding="UTF-8"?>

<!-- generated on 2024-10-21 14:51:22.995795 by osmWebWizard.py v1_20_0+0002-343658e7c64
<configuration>
    <net-file value="C:\Users\Mahmo\2024-10-21-14-51-12\osm.net.xml.gz"/>
    <output-trip-file value="C:\Users\Mahmo\2024-10-21-14-51-12\osm.passenger.trips.xml"/>
    <route-file value="C:\Users\Mahmo\2024-10-21-14-51-12\osm.passenger.rou.xml"/>
    <prefix value="veh"/>
    <trip-attributes value="departLane=&quot;best&quot;"/>
    <fringe-start-attributes value="departSpeed=&quot;max&quot;"/>
    <vehicle-class value="passenger"/>
    <lanes value="True"/>
    <fringe-factor value="5"/>
    <allow-fringe.min-length value="1000.0"/>
    <via-edge-types value="highway.motorway,highway.motorway_link,highway.trunk_link,highway.primary_link,highway.secondary_link,highway.tertiary_link"/>
    <min-distance value="300.0"/>
    <min-distance.fringe value="10.0"/>
    <remove-loops value="True"/>
    <validate value="True"/>
    <insertion-density value="20.0"/>
</configuration>
-->

<!-- generated on 2024-10-21 14:51:22 by Eclipse SUMO duarouter Version 1.20.0
<configuration xmlns:xsi="http://www.w3.org/2001/XMLSchema-instance" xsi:noNamespaceSchemaLocation="http://sumo.dlr.de/xsd/duarouterConfiguration.xsd">

    <input>
        <net-file value="C:\Users\Mahmo\2024-10-21-14-51-12\osm.net.xml.gz"/>
        <route-files value="C:\Users\Mahmo\2024-10-21-14-51-12\osm.passenger.trips.xml"/>
    </input>

    <output>
        <output-file value="C:\Users\Mahmo\2024-10-21-14-51-12\osm.passenger.trips.xml.tmp"/>
        <alternatives-output value="NUL"/>
        <write-trips value="true"/>
    </output>

    <processing>
        <remove-loops value="true"/>
    </processing>

    <time>
        <begin value="0.0"/>
        <end value="3600.0"/>
    </time>

    <report>
        <no-warnings value="true"/>
        <ignore-errors value="true"/>
        <no-step-log value="true"/>
    </report>

</configuration>
-->

<routes xmlns:xsi="http://www.w3.org/2001/XMLSchema-instance" xsi:noNamespaceSchemaLocation="http://sumo.dlr.de/xsd/routes_file.xsd">
    <vType id="veh_passenger" vClass="passenger"/>
    <trip id="veh0" type="veh_passenger" depart="0.00" departLane="best" from="-38098598#2" to="28955330#4"/>
    <trip id="veh1" type="veh_passenger" depart="1.33" departLane="best" from="725728124#1" to="-44279285#1"/>
    <trip id="veh2" type="veh_passenger" depart="2.67" departLane="best" from="43990711#0" to="43990666#1"/>
    <trip id="veh3" type="veh_passenger" depart="4.00" departLane="best" from="884101019#4" to="-37402065#1"/>
    <trip id="veh4" type="veh_passenger" depart="5.34" departLane="best" from="-43990762#1" to="28161112#0"/>
    <trip id="veh5" type="veh_passenger" depart="6.67" departLane="best" departSpeed="max" from="-28955331#4" to="-43990723#0"/>
    <trip id="veh6" type="veh_passenger" depart="8.01" departLane="best" departSpeed="max" from="39517119" to="-30328269#2"/>
    <trip id="veh7" type="veh_passenger" depart="9.34" departLane="best" from="-44279277#2" to="37061196#0"/>
    <trip id="veh8" type="veh_passenger" depart="10.68" departLane="best" from="-725728122#1" to="-28161109#0"/>
    <trip id="veh9" type="veh_passenger" depart="12.01" departLane="best" from="725728118#2" to="-43990703#2"/>
    <trip id="veh10" type="veh_passenger" depart="13.34" departLane="best" from="979815160#1" to="979815162#2"/>
    <trip id="veh11" type="veh_passenger" depart="14.68" departLane="best" departSpeed="max" from="-37891672#2" to="-38098592#1"/>
    <trip id="veh12" type="veh_passenger" depart="16.01" departLane="best" from="726764914#2" to="-37891658#4"/>
    <trip id="veh13" type="veh_passenger" depart="17.35" departLane="best" from="725728121#1" to="43990749#1"/>
    <trip id="veh14" type="veh_passenger" depart="18.68" departLane="best" from="28724139" to="-979815173"/>
    <trip id="veh15" type="veh_passenger" depart="20.02" departLane="best" from="1193290914" to="-30615246#6"/>
    <trip id="veh16" type="veh_passenger" depart="21.35" departLane="best" from="726764879#0" to="-392485016#1"/>
    <trip id="veh17" type="veh_passenger" depart="22.69" departLane="best" from="-775652377#1" to="37061189#1"/>
    <trip id="veh18" type="veh_passenger" depart="24.02" departLane="best" from="43990669#1" to="-30615246#5"/>
    <trip id="veh19" type="veh_passenger" depart="25.36" departLane="best" from="-44279296" to="-726764886#1"/>
    <trip id="veh20" type="veh_passenger" depart="26.69" departLane="best" from="-37061200" to="-47027690"/>
    <trip id="veh21" type="veh_passenger" depart="28.02" departLane="best" from="-38098598#0" to="-725784410"/>
    <trip id="veh22" type="veh_passenger" depart="29.36" departLane="best" from="37972550#4" to="1193290919#0"/>
    <trip id="veh23" type="veh_passenger" depart="30.69" departLane="best" departSpeed="max" from="-979941410#2" to="-43990759#0"/>
    <trip id="veh24" type="veh_passenger" depart="32.03" departLane="best" from="-725728118#1" to="967887534-AddedOnRampEdge"/>
    <trip id="veh25" type="veh_passenger" depart="33.36" departLane="best" from="-39517116#2" to="37972550#3"/>
    <trip id="veh26" type="veh_passenger" depart="34.70" departLane="best" from="43990695#2" to="43990749#1"/>
    <trip id="veh27" type="veh_passenger" depart="36.03" departLane="best" departSpeed="max" from="-43990671" to="1293834698#0"/>
    <trip id="veh28" type="veh_passenger" depart="37.37" departLane="best" from="979829933#1" to="39517135#2"/>
    <trip id="veh29" type="veh_passenger" depart="38.70" departLane="best" from="-28955345#1" to="43990687"/>
    <trip id="veh30" type="veh_passenger" depart="40.03" departLane="best" from="726764893#2" to="52014400#0"/>
    <trip id="veh31" type="veh_passenger" depart="41.37" departLane="best" departSpeed="max" from="-726764896" to="-725728123#3"/>
    <trip id="veh32" type="veh_passenger" depart="42.70" departLane="best" from="-43990755#0" to="972224191#0-AddedOffRampEdge"/>
    <trip id="veh33" type="veh_passenger" depart="44.04" departLane="best" departSpeed="max" from="818794387" to="-775652377#1"/>
    <trip id="veh34" type="veh_passenger" depart="45.37" departLane="best" from="39517128#0" to="1293834698#6"/>
    <trip id="veh35" type="veh_passenger" depart="46.71" departLane="best" departSpeed="max" from="-725728117#4" to="-52496322#0"/>
    <trip id="veh36" type="veh_passenger" depart="48.04" departLane="best" from="-29475653#1" to="725728121#1"/>
    <trip id="veh37" type="veh_passenger" depart="49.38" departLane="best" from="37061182#0" to="967887525"/>
    <trip id="veh38" type="veh_passenger" depart="50.71" departLane="best" departSpeed="max" from="1193290928" to="-44279281#0"/>
    <trip id="veh39" type="veh_passenger" depart="52.04" departLane="best" from="979941410#0" to="28579296#1"/>
    <trip id="veh40" type="veh_passenger" depart="53.38" departLane="best" departSpeed="max" from="-39517125#1" to="39517127#2"/>
    <trip id="veh41" type="veh_passenger" depart="54.71" departLane="best" from="52496323" to="1293834705"/>
    <trip id="veh42" type="veh_passenger" depart="56.05" departLane="best" from="37061184#5" to="1293834698#1"/>
    <trip id="veh43" type="veh_passenger" depart="57.38" departLane="best" from="979941405#0" to="28955330#6"/>
    <trip id="veh44" type="veh_passenger" depart="58.72" departLane="best" from="28579294#0" to="81606762"/>
    <trip id="veh45" type="veh_passenger" depart="60.05" departLane="best" from="28724189#0" to="43990711#8"/>
    <trip id="veh46" type="veh_passenger" depart="61.39" departLane="best" from="-725728118#1" to="39517136#0"/>
    <trip id="veh47" type="veh_passenger" depart="62.72" departLane="best" departSpeed="max" from="-39517125#1" to="1293834709#2"/>
    <trip id="veh48" type="veh_passenger" depart="64.05" departLane="best" from="1293834709#1" to="979815160#4"/>
    <trip id="veh49" type="veh_passenger" depart="65.39" departLane="best" departSpeed="max" from="818794387" to="-725728121#2"/>
    <trip id="veh50" type="veh_passenger" depart="66.72" departLane="best" from="1294717374#1" to="43990704#1"/>
    <trip id="veh51" type="veh_passenger" depart="68.06" departLane="best" from="967887527#3" to="817302912#1"/>
    <trip id="veh52" type="veh_passenger" depart="69.39" departLane="best" from="-726764882#1" to="39517135#0"/>
    <trip id="veh53" type="veh_passenger" depart="70.73" departLane="best" from="37061196#1" to="-43990664#3"/>
    <trip id="veh54" type="veh_passenger" depart="72.06" departLane="best" from="44279279#0" to="-28955345#5"/>
    <trip id="veh55" type="veh_passenger" depart="73.40" departLane="best" from="47027690" to="28955331#0"/>
    <trip id="veh56" type="veh_passenger" depart="74.73" departLane="best" from="-1154294355#0" to="884101018#3"/>
    <trip id="veh57" type="veh_passenger" depart="76.07" departLane="best" from="28955329#2" to="967887529#3-AddedOffRampEdge"/>
    <trip id="veh58" type="veh_passenger" depart="77.40" departLane="best" from="-884101018#0" to="726764892#2"/>
    <trip id="veh59" type="veh_passenger" depart="78.73" departLane="best" from="726764892#6" to="37061181#2"/>
    <trip id="veh60" type="veh_passenger" depart="80.07" departLane="best" from="-37061187#4" to="47027686#3"/>
    <trip id="veh61" type="veh_passenger" depart="81.40" departLane="best" departSpeed="max" from="44279281#0" to="-39517138#1"/>
    <trip id="veh62" type="veh_passenger" depart="82.74" departLane="best" from="1293834712" to="30615246#2"/>
    <trip id="veh63" type="veh_passenger" depart="84.07" departLane="best" from="1293834698#6" to="43990762#1"/>
    <trip id="veh64" type="veh_passenger" depart="85.41" departLane="best" departSpeed="max" from="28874758#0" to="43990749#1"/>
    <trip id="veh65" type="veh_passenger" depart="86.74" departLane="best" from="43990711#8" to="-768001668#1"/>
    <trip id="veh66" type="veh_passenger" depart="88.08" departLane="best" from="979941404#3" to="39517141#0"/>
    <trip id="veh67" type="veh_passenger" depart="89.41" departLane="best" from="967887527#5" to="28724190#2"/>
    <trip id="veh68" type="veh_passenger" depart="90.74" departLane="best" from="-39517132#2" to="-44279285#3"/>
    <trip id="veh69" type="veh_passenger" depart="92.08" departLane="best" from="-884101018#2" to="37061195#0"/>
    <trip id="veh70" type="veh_passenger" depart="93.41" departLane="best" departSpeed="max" from="-45473852" to="-44279281#0"/>
    <trip id="veh71" type="veh_passenger" depart="94.75" departLane="best" from="-37061191#2" to="39517130#0"/>
    <trip id="veh72" type="veh_passenger" depart="96.08" departLane="best" departSpeed="max" from="-45473852" to="967887527#3"/>
    <trip id="veh73" type="veh_passenger" depart="97.42" departLane="best" from="768001668#2" to="-37061188"/>
    <trip id="veh74" type="veh_passenger" depart="98.75" departLane="best" from="-47027686#3" to="43990652#2"/>
    <trip id="veh75" type="veh_passenger" depart="100.09" departLane="best" departSpeed="max" from="-43990757" to="39517141#0"/>
    <trip id="veh76" type="veh_passenger" depart="101.42" departLane="best" from="967887529#3-AddedOffRampEdge" to="-37061185#0"/>
    <trip id="veh77" type="veh_passenger" depart="102.75" departLane="best" from="1293834711#5" to="722896662#1"/>
    <trip id="veh78" type="veh_passenger" depart="104.09" departLane="best" from="725728121#1" to="-43990711#1"/>
    <trip id="veh79" type="veh_passenger" depart="105.42" departLane="best" departSpeed="max" from="-37972551" to="1293834709#1"/>
    <trip id="veh80" type="veh_passenger" depart="106.76" departLane="best" from="1293834698#6" to="1293834719"/>
    <trip id="veh81" type="veh_passenger" depart="108.09" departLane="best" from="-43990705#4" to="43990664#1"/>
    <trip id="veh82" type="veh_passenger" depart="109.43" departLane="best" from="-979829930#3" to="-392485011"/>
    <trip id="veh83" type="veh_passenger" depart="110.76" departLane="best" from="1193781082#1" to="-979815173"/>
    <trip id="veh84" type="veh_passenger" depart="112.10" departLane="best" from="775652377#1" to="-722896662#0"/>
    <trip id="veh85" type="veh_passenger" depart="113.43" departLane="best" from="-43990705#4" to="1293834711#4"/>
    <trip id="veh86" type="veh_passenger" depart="114.76" departLane="best" departSpeed="max" from="-52014398" to="967887529#1"/>
    <trip id="veh87" type="veh_passenger" depart="116.10" departLane="best" departSpeed="max" from="1293834704" to="81606779#0"/>
    <trip id="veh88" type="veh_passenger" depart="117.43" departLane="best" from="-28955330#4" to="-37061177#2"/>
    <trip id="veh89" type="veh_passenger" depart="118.77" departLane="best" from="-979941410#1" to="-726764893#3"/>
    <trip id="veh90" type="veh_passenger" depart="120.10" departLane="best" from="979815163#6-AddedOffRampEdge" to="1293834709#3"/>
    <trip id="veh91" type="veh_passenger" depart="121.44" departLane="best" departSpeed="max" from="726764923" to="-43990695#2"/>
    <trip id="veh92" type="veh_passenger" depart="122.77" departLane="best" from="1293834717#1" to="-44279277#0"/>
    <trip id="veh93" type="veh_passenger" depart="124.11" departLane="best" departSpeed="max" from="1193290928" to="-37061181#3"/>
    <trip id="veh94" type="veh_passenger" depart="125.44" departLane="best" from="1193290914" to="979941403#0"/>
    <trip id="veh95" type="veh_passenger" depart="126.78" departLane="best" departSpeed="max" from="725728117#4" to="633968153"/>
    <trip id="veh96" type="veh_passenger" depart="128.11" departLane="best" from="979815160#1" to="979941410#2"/>
    <trip id="veh97" type="veh_passenger" depart="129.44" departLane="best" from="28955332#3" to="-43990711#3"/>
    <trip id="veh98" type="veh_passenger" depart="130.78" departLane="best" from="-43990664#1" to="726764892#6"/>
    <trip id="veh99" type="veh_passenger" depart="132.11" departLane="best" from="979815163#6-AddedOffRampEdge" to="37061189#4"/>
    <trip id="veh100" type="veh_passenger" depart="133.45" departLane="best" from="28874758#2" to="44279285#2"/>
    <trip id="veh101" type="veh_passenger" depart="134.78" departLane="best" from="-37061181#2" to="-37061191#1"/>
    <trip id="veh102" type="veh_passenger" depart="136.12" departLane="best" from="1294717374#2" to="-775652377#3"/>
    <trip id="veh103" type="veh_passenger" depart="137.45" departLane="best" from="-43990666#1" to="979815163#1"/>
    <trip id="veh104" type="veh_passenger" depart="138.79" departLane="best" from="-37061200" to="-43990706#0"/>
    <trip id="veh105" type="veh_passenger" depart="140.12" departLane="best" from="37061187#4" to="43990665#0"/>
    <trip id="veh106" type="veh_passenger" depart="141.45" departLane="best" from="-47027684#3" to="-39517134#0"/>
    <trip id="veh107" type="veh_passenger" depart="142.79" departLane="best" from="884101019#3" to="-52496321#1"/>
    <trip id="veh108" type="veh_passenger" depart="144.12" departLane="best" from="1293834698#4" to="37061189#0"/>
    <trip id="veh109" type="veh_passenger" depart="145.46" departLane="best" from="-47027687" to="1293834698#6"/>
    <trip id="veh110" type="veh_passenger" depart="146.79" departLane="best" from="39517138#1" to="-726764897#1"/>
    <trip id="veh111" type="veh_passenger" depart="148.13" departLane="best" departSpeed="max" from="-726764896" to="45473852"/>
    <trip id="veh112" type="veh_passenger" depart="149.46" departLane="best" from="-37061192#1" to="1293834715"/>
    <trip id="veh113" type="veh_passenger" depart="150.80" departLane="best" from="-37061193#1" to="-44279277#0"/>
    <trip id="veh114" type="veh_passenger" depart="152.13" departLane="best" departSpeed="max" from="-725728117#4" to="967887529#4"/>
    <trip id="veh115" type="veh_passenger" depart="153.46" departLane="best" from="-979941410#1" to="-43990669#1"/>
    <trip id="veh116" type="veh_passenger" depart="154.80" departLane="best" from="726764886#0" to="43990704#2"/>
    <trip id="veh117" type="veh_passenger" depart="156.13" departLane="best" from="37061199#3" to="979941403#1"/>
    <trip id="veh118" type="veh_passenger" depart="157.47" departLane="best" from="39517127#3" to="-28161109#0"/>
    <trip id="veh119" type="veh_passenger" depart="158.80" departLane="best" from="725728127#1" to="-726764897#0"/>
    <trip id="veh120" type="veh_passenger" depart="160.14" departLane="best" from="-39517134#0" to="967887534-AddedOnRampEdge"/>
    <trip id="veh121" type="veh_passenger" depart="161.47" departLane="best" from="-39517138#6" to="-39517131#1"/>
    <trip id="veh122" type="veh_passenger" depart="162.81" departLane="best" from="-39517116#0" to="37061167"/>
    <trip id="veh123" type="veh_passenger" depart="164.14" departLane="best" from="-725728123#0" to="37891672#2"/>
    <trip id="veh124" type="veh_passenger" depart="165.47" departLane="best" from="43990701#2" to="43990749#0"/>
    <trip id="veh125" type="veh_passenger" depart="166.81" departLane="best" from="-37972550#1" to="725728122#0"/>
    <trip id="veh126" type="veh_passenger" depart="168.14" departLane="best" from="726764898" to="37972550#1"/>
    <trip id="veh127" type="veh_passenger" depart="169.48" departLane="best" from="1293834698#6" to="-725784409#0"/>
    <trip id="veh128" type="veh_passenger" depart="170.81" departLane="best" from="-1193781084#0" to="51319384"/>
    <trip id="veh130" type="veh_passenger" depart="173.48" departLane="best" from="1293834698#8" to="-28161109#3"/>
    <trip id="veh131" type="veh_passenger" depart="174.82" departLane="best" from="-37061196#0" to="884101019#3"/>
    <trip id="veh132" type="veh_passenger" depart="176.15" departLane="best" from="967887525" to="-30328269#3"/>
    <trip id="veh133" type="veh_passenger" depart="177.49" departLane="best" from="726764887#0" to="37061190#2"/>
    <trip id="veh134" type="veh_passenger" depart="178.82" departLane="best" from="-43433884#0" to="-39517137#5"/>
    <trip id="veh135" type="veh_passenger" depart="180.15" departLane="best" from="726764893#1" to="967887527#0"/>
    <trip id="veh136" type="veh_passenger" depart="181.49" departLane="best" departSpeed="max" from="722896662#0" to="81606762"/>
    <trip id="veh137" type="veh_passenger" depart="182.82" departLane="best" from="928778043" to="-43990759#1"/>
    <trip id="veh138" type="veh_passenger" depart="184.16" departLane="best" departSpeed="max" from="-52014398" to="39517107"/>
    <trip id="veh139" type="veh_passenger" depart="185.49" departLane="best" from="47027698#1" to="884101019#3"/>
    <trip id="veh140" type="veh_passenger" depart="186.83" departLane="best" from="1293834698#0" to="39517116#0"/>
    <trip id="veh141" type="veh_passenger" depart="188.16" departLane="best" from="-43990664#1" to="967887529#3-AddedOffRampEdge"/>
    <trip id="veh142" type="veh_passenger" depart="189.50" departLane="best" from="775652380#2" to="-979815173"/>
    <trip id="veh143" type="veh_passenger" depart="190.83" departLane="best" from="-725728123#0" to="884101019#2"/>
    <trip id="veh144" type="veh_passenger" depart="192.16" departLane="best" from="-28955331#1" to="43990757"/>
    <trip id="veh145" type="veh_passenger" depart="193.50" departLane="best" from="-81606761#3" to="967887529#3-AddedOffRampEdge"/>
    <trip id="veh146" type="veh_passenger" depart="194.83" departLane="best" from="725728117#0" to="81606779#1"/>
    <trip id="veh147" type="veh_passenger" depart="196.17" departLane="best" departSpeed="max" from="52014397" to="39517125#0"/>
    <trip id="veh148" type="veh_passenger" depart="197.50" departLane="best" from="81606780#1" to="81606762"/>
    <trip id="veh149" type="veh_passenger" depart="198.84" departLane="best" from="-44279280#1" to="725784414#4"/>
    <trip id="veh150" type="veh_passenger" depart="200.17" departLane="best" from="1293834709#4" to="-726764923"/>
    <trip id="veh151" type="veh_passenger" depart="201.51" departLane="best" departSpeed="max" from="722896662#0" to="-47027684#1"/>
    <trip id="veh152" type="veh_passenger" depart="202.84" departLane="best" from="-28955330#7" to="-43990711#6"/>
    <trip id="veh153" type="veh_passenger" depart="204.17" departLane="best" from="775652377#2" to="81606779#1"/>
    <trip id="veh154" type="veh_passenger" depart="205.51" departLane="best" from="979815163#2" to="725784411#1"/>
    <trip id="veh155" type="veh_passenger" depart="206.84" departLane="best" from="-392485015" to="1293834698#8"/>
    <trip id="veh156" type="veh_passenger" depart="208.18" departLane="best" from="928778041#5" to="28955332#4"/>
    <trip id="veh157" type="veh_passenger" depart="209.51" departLane="best" from="967887529#4" to="-39517131#1"/>
    <trip id="veh158" type="veh_passenger" depart="210.85" departLane="best" from="979815163#6-AddedOffRampEdge" to="43990704#1"/>
    <trip id="veh159" type="veh_passenger" depart="212.18" departLane="best" from="-979815162#2" to="-725728122#3"/>
    <trip id="veh160" type="veh_passenger" depart="213.52" departLane="best" from="-39517117" to="1293834709#2"/>
    <trip id="veh161" type="veh_passenger" depart="214.85" departLane="best" from="43990705#3" to="-768001668#3"/>
    <trip id="veh162" type="veh_passenger" depart="216.18" departLane="best" from="37061193#1" to="28724134#1"/>
    <trip id="veh163" type="veh_passenger" depart="217.52" departLane="best" from="1193290918" to="-37061188"/>
    <trip id="veh164" type="veh_passenger" depart="218.85" departLane="best" from="-52496321#0" to="43990705#3"/>
    <trip id="veh165" type="veh_passenger" depart="220.19" departLane="best" from="-1154294355#2" to="1293834709#3"/>
    <trip id="veh166" type="veh_passenger" depart="221.52" departLane="best" from="28724190#0" to="-43990711#5"/>
    <trip id="veh168" type="veh_passenger" depart="224.19" departLane="best" from="-979829932#3" to="-37061187#3"/>
    <trip id="veh169" type="veh_passenger" depart="225.53" departLane="best" from="726764893#3" to="1293834702"/>
    <trip id="veh170" type="veh_passenger" depart="226.86" departLane="best" from="1193781082#0" to="-726764892#4"/>
    <trip id="veh171" type="veh_passenger" depart="228.20" departLane="best" from="39517136#1" to="1293834705"/>
    <trip id="veh172" type="veh_passenger" depart="229.53" departLane="best" from="967887534" to="43990667#0"/>
    <trip id="veh173" type="veh_passenger" depart="230.86" departLane="best" from="967887524" to="38098598#2"/>
    <trip id="veh174" type="veh_passenger" depart="232.20" departLane="best" from="-726764887#0" to="-30328269#7"/>
    <trip id="veh175" type="veh_passenger" depart="233.53" departLane="best" from="-1116578404" to="-726764882#0"/>
    <trip id="veh176" type="veh_passenger" depart="234.87" departLane="best" from="1293834698#9" to="37061189#6"/>
    <trip id="veh177" type="veh_passenger" depart="236.20" departLane="best" from="39517127#4" to="1293834717#1"/>
    <trip id="veh178" type="veh_passenger" depart="237.54" departLane="best" departSpeed="max" from="1293834704" to="-44279277#0"/>
    <trip id="veh179" type="veh_passenger" depart="238.87" departLane="best" from="1293834711#5" to="967887527#1"/>
    <trip id="veh180" type="veh_passenger" depart="240.21" departLane="best" departSpeed="max" from="722896662#0" to="-43990701#0"/>
    <trip id="veh181" type="veh_passenger" depart="241.54" departLane="best" from="37402065#0" to="28724189#1"/>
    <trip id="veh182" type="veh_passenger" depart="242.87" departLane="best" departSpeed="max" from="37972548" to="-979815162#10"/>
    <trip id="veh183" type="veh_passenger" depart="244.21" departLane="best" from="725784405" to="45473852"/>
    <trip id="veh184" type="veh_passenger" depart="245.54" departLane="best" from="-39517138#3" to="-44279285#3"/>
    <trip id="veh185" type="veh_passenger" depart="246.88" departLane="best" from="43990711#4" to="28955330#3"/>
    <trip id="veh186" type="veh_passenger" depart="248.21" departLane="best" from="-47027703#1" to="1294717372#1"/>
    <trip id="veh187" type="veh_passenger" depart="249.55" departLane="best" departSpeed="max" from="726764923" to="-37061192#0"/>
    <trip id="veh188" type="veh_passenger" depart="250.88" departLane="best" from="1293834698#2" to="39517128#0"/>
    <trip id="veh189" type="veh_passenger" depart="252.22" departLane="best" from="-43990706#3" to="-43990703#1"/>
    <trip id="veh190" type="veh_passenger" depart="253.55" departLane="best" from="1294717372#1" to="-52014397"/>
    <trip id="veh191" type="veh_passenger" depart="254.88" departLane="best" from="39517128#1" to="1294902477#0"/>
    <trip id="veh192" type="veh_passenger" depart="256.22" departLane="best" from="-43990751#3" to="47027704"/>
    <trip id="veh193" type="veh_passenger" depart="257.55" departLane="best" from="-39517107" to="1293834707"/>
    <trip id="veh194" type="veh_passenger" depart="258.89" departLane="best" from="43990701#2" to="-979815162#4"/>
    <trip id="veh195" type="veh_passenger" depart="260.22" departLane="best" from="1294717379" to="37061177#1"/>
    <trip id="veh196" type="veh_passenger" depart="261.56" departLane="best" departSpeed="max" from="-52014398" to="-768001668#1"/>
    <trip id="veh197" type="veh_passenger" depart="262.89" departLane="best" from="1293834709#3" to="725728125#1"/>
    <trip id="veh198" type="veh_passenger" depart="264.23" departLane="best" from="39517136#2" to="979941403#1"/>
    <trip id="veh199" type="veh_passenger" depart="265.56" departLane="best" from="37061188" to="-979815160#0"/>
    <trip id="veh200" type="veh_passenger" depart="266.89" departLane="best" from="884101019#4" to="37972551"/>
    <trip id="veh201" type="veh_passenger" depart="268.23" departLane="best" from="43990703#10" to="-28161109#3"/>
    <trip id="veh202" type="veh_passenger" depart="269.56" departLane="best" from="726764881#0" to="-30328269#7"/>
    <trip id="veh203" type="veh_passenger" depart="270.90" departLane="best" from="928778042#0" to="44279279#0"/>
    <trip id="veh204" type="veh_passenger" depart="272.23" departLane="best" from="1293834712" to="725728117#2"/>
    <trip id="veh205" type="veh_passenger" depart="273.57" departLane="best" from="-51319387" to="39517134#1"/>
    <trip id="veh206" type="veh_passenger" depart="274.90" departLane="best" departSpeed="max" from="44279281#0" to="28874786"/>
    <trip id="veh207" type="veh_passenger" depart="276.24" departLane="best" departSpeed="max" from="37972548" to="-725784407#0"/>
    <trip id="veh208" type="veh_passenger" depart="277.57" departLane="best" from="37061199#0" to="-726764881#0"/>
    <trip id="veh209" type="veh_passenger" depart="278.91" departLane="best" from="-725728122#3" to="81606772"/>
    <trip id="veh210" type="veh_passenger" depart="280.24" departLane="best" departSpeed="max" from="28874758#0" to="-39517149#2"/>
    <trip id="veh211" type="veh_passenger" depart="281.57" departLane="best" departSpeed="max" from="-45473857#1" to="43990701#0"/>
    <trip id="veh212" type="veh_passenger" depart="282.91" departLane="best" from="43990688" to="-37061184#4"/>
    <trip id="veh213" type="veh_passenger" depart="284.24" departLane="best" from="1293834698#0" to="29475653#5"/>
    <trip id="veh214" type="veh_passenger" depart="285.58" departLane="best" from="1293834698#2" to="-43990755#1"/>
    <trip id="veh215" type="veh_passenger" depart="286.91" departLane="best" from="1293834698#4" to="967887527#3"/>
    <trip id="veh216" type="veh_passenger" depart="288.25" departLane="best" from="37061181#4" to="-43990703#0"/>
    <trip id="veh217" type="veh_passenger" depart="289.58" departLane="best" departSpeed="max" from="768001668#0" to="47027698#2"/>
    <trip id="veh218" type="veh_passenger" depart="290.92" departLane="best" from="1193290916" to="-28161109#0"/>
    <trip id="veh219" type="veh_passenger" depart="292.25" departLane="best" departSpeed="max" from="768001668#0" to="979815160#3"/>
    <trip id="veh220" type="veh_passenger" depart="293.58" departLane="best" from="1293834698#4" to="44279285#1"/>
    <trip id="veh221" type="veh_passenger" depart="294.92" departLane="best" from="-28955328#1" to="-37891658#3"/>
    <trip id="veh222" type="veh_passenger" depart="296.25" departLane="best" from="-1193781084#1" to="-43990695#0"/>
    <trip id="veh223" type="veh_passenger" depart="297.59" departLane="best" from="1293834698#4" to="-39517137#5"/>
    <trip id="veh224" type="veh_passenger" depart="298.92" departLane="best" from="37891658#3" to="28955331#0"/>
    <trip id="veh225" type="veh_passenger" depart="300.26" departLane="best" departSpeed="max" from="1193290928" to="-37061181#3"/>
    <trip id="veh226" type="veh_passenger" depart="301.59" departLane="best" departSpeed="max" from="-28955331#4" to="39517136#3"/>
    <trip id="veh227" type="veh_passenger" depart="302.93" departLane="best" from="-39517141#1" to="1293834716#1"/>
    <trip id="veh228" type="veh_passenger" depart="304.26" departLane="best" from="-37061177#3" to="1293834698#0"/>
    <trip id="veh229" type="veh_passenger" depart="305.59" departLane="best" from="-43990755#1" to="966428932#1"/>
    <trip id="veh230" type="veh_passenger" depart="306.93" departLane="best" departSpeed="max" from="44279277#0" to="1293834698#0"/>
    <trip id="veh231" type="veh_passenger" depart="308.26" departLane="best" from="43990754" to="726764892#2"/>
    <trip id="veh232" type="veh_passenger" depart="309.60" departLane="best" departSpeed="max" from="-52014400#1" to="37061201#0"/>
    <trip id="veh233" type="veh_passenger" depart="310.93" departLane="best" from="-28955329#2" to="-28955345#5"/>
    <trip id="veh234" type="veh_passenger" depart="312.27" departLane="best" departSpeed="max" from="39517119" to="-52496323"/>
    <trip id="veh235" type="veh_passenger" depart="313.60" departLane="best" from="-39517125#0" to="45473857#1"/>
    <trip id="veh236" type="veh_passenger" depart="314.94" departLane="best" from="28955330#1" to="-43990664#2"/>
    <trip id="veh237" type="veh_passenger" depart="316.27" departLane="best" from="-39517135#3" to="-43990652#3"/>