<?xml version="1.0" encoding="UTF-8"?>

<!-- generated on 2024-10-20 23:57:58 by Eclipse SUMO netconvert Version 1.20.0
<configuration xmlns:xsi="http://www.w3.org/2001/XMLSchema-instance" xsi:noNamespaceSchemaLocation="http://sumo.dlr.de/xsd/netconvertConfiguration.xsd">

    <input>
        <type-files value="${SUMO_HOME}/data/typemap/osmNetconvert.typ.xml"/>
        <osm-files value="osm_bbox.osm.xml.gz"/>
    </input>

    <output>
        <output-file value="osm.net.xml.gz"/>
        <output.street-names value="true"/>
        <output.original-names value="true"/>
    </output>

    <projection>
        <proj.utm value="true"/>
    </projection>

    <processing>
        <geometry.remove value="true"/>
        <roundabouts.guess value="true"/>
    </processing>

    <tls_building>
        <tls.discard-simple value="true"/>
        <tls.join value="true"/>
        <tls.guess-signals value="true"/>
        <tls.default-type value="actuated"/>
    </tls_building>

    <ramp_guessing>
        <ramps.guess value="true"/>
    </ramp_guessing>

    <junctions>
        <junctions.join value="true"/>
        <junctions.corner-detail value="5"/>
    </junctions>

</configuration>
-->

<net version="1.20" junctionCornerDetail="5" limitTurnSpeed="5.50" xmlns:xsi="http://www.w3.org/2001/XMLSchema-instance" xsi:noNamespaceSchemaLocation="http://sumo.dlr.de/xsd/net_file.xsd">

    <location netOffset="-282964.76,-4155471.30" convBoundary="0.00,0.00,4852.69,3144.25" origBoundary="126.544010,37.521277,126.598058,37.550138" projParameter="+proj=utm +zone=52 +ellps=WGS84 +datum=WGS84 +units=m +no_defs"/>

    <type id="highway.motorway" priority="14" numLanes="2" speed="39.44" allow="private emergency authority army vip passenger hov taxi bus coach delivery truck trailer motorcycle evehicle custom1 custom2" oneway="1"/>
    <type id="highway.residential" priority="3" numLanes="1" speed="13.89" disallow="tram rail_urban rail rail_electric rail_fast ship container cable_car subway aircraft wheelchair scooter drone" oneway="0"/>
    <type id="highway.service" priority="1" numLanes="1" speed="5.56" allow="pedestrian delivery bicycle" oneway="0"/>

    <edge id=":318838649-AddedOnRampNode_0" function="internal">
        <lane id=":318838649-AddedOnRampNode_0_0" index="0" allow="private emergency authority army vip passenger hov taxi bus coach delivery truck trailer motorcycle evehicle custom1 custom2" speed="27.78" length="8.00" shape="1636.37,1776.64 1630.44,1771.27"/>
        <lane id=":318838649-AddedOnRampNode_0_1" index="1" allow="private emergency authority army vip passenger hov taxi bus coach delivery truck trailer motorcycle evehicle custom1 custom2" speed="27.78" length="8.00" shape="1638.51,1774.27 1632.59,1768.90"/>
        <lane id=":318838649-AddedOnRampNode_0_2" index="2" allow="private emergency authority army vip passenger hov taxi bus coach delivery truck trailer motorcycle evehicle custom1 custom2" speed="27.78" length="8.00" shape="1640.66,1771.90 1634.73,1766.53"/>
    </edge>
    <edge id=":3226562116_0" function="internal">
        <lane id=":3226562116_0_0" index="0" allow="private emergency authority army vip passenger hov taxi bus coach delivery truck trailer motorcycle evehicle custom1 custom2" speed="33.61" length="3.50" shape="1278.00,1392.59 1280.58,1395.09"/>
        <lane id=":3226562116_0_1" index="1" allow="private emergency authority army vip passenger hov taxi bus coach delivery truck trailer motorcycle evehicle custom1 custom2" speed="33.61" length="3.50" shape="1275.85,1394.96 1278.29,1397.32"/>
    </edge>
    <edge id=":3226562116_2" function="internal">
        <lane id=":3226562116_2_0" index="0" allow="private emergency authority army vip passenger hov taxi bus coach delivery truck trailer motorcycle evehicle custom1 custom2" speed="27.78" length="2.88" shape="1273.71,1397.33 1276.03,1399.52"/>
        <lane id=":3226562116_2_1" index="1" allow="private emergency authority army vip passenger hov taxi bus coach delivery truck trailer motorcycle evehicle custom1 custom2" speed="27.78" length="2.88" shape="1271.56,1399.71 1273.73,1401.75"/>
        <lane id=":3226562116_2_2" index="2" allow="private emergency authority army vip passenger hov taxi bus coach delivery truck trailer motorcycle evehicle custom1 custom2" speed="27.78" length="2.88" shape="1269.41,1402.08 1271.44,1403.98"/>
        <lane id=":3226562116_2_3" index="3" allow="private emergency authority army vip passenger hov taxi bus coach delivery truck trailer motorcycle evehicle custom1 custom2" speed="27.78" length="2.88" shape="1267.27,1404.46 1269.14,1406.21"/>
    </edge>
    <edge id=":4454706340_0" function="internal">
        <lane id=":4454706340_0_0" index="0" allow="pedestrian delivery bicycle" speed="3.65" length="4.67" shape="24.62,185.19 24.35,183.77 24.64,182.93 25.49,182.65 26.90,182.95"/>
    </edge>
    <edge id=":4454706347_0" function="internal">
        <lane id=":4454706347_0_0" index="0" allow="pedestrian delivery bicycle" speed="5.56" length="12.80" shape="694.56,856.55 691.22,855.81 688.42,854.72 685.94,853.08 683.52,850.69"/>
    </edge>
    <edge id=":4454706347_1" function="internal">
        <lane id=":4454706347_1_0" index="0" allow="pedestrian delivery bicycle" speed="5.56" length="12.67" shape="694.56,856.55 691.00,855.42 689.18,853.56 689.10,850.96 690.77,847.61"/>
    </edge>
    <edge id=":4454706347_2" function="internal">
        <lane id=":4454706347_2_0" index="0" allow="pedestrian delivery bicycle" speed="3.65" length="4.67" shape="694.56,856.55 693.51,855.56 693.25,854.70 693.78,853.98 695.10,853.39"/>
    </edge>
    <edge id=":4454706347_3" function="internal">
        <lane id=":4454706347_3_0" index="0" allow="pedestrian delivery bicycle" speed="4.71" length="5.63" shape="693.41,849.42 692.67,850.91 692.71,852.06 693.51,852.89 695.10,853.39"/>
    </edge>
    <edge id=":4454706347_4" function="internal">
        <lane id=":4454706347_4_0" index="0" allow="pedestrian delivery bicycle" speed="5.56" length="12.17" shape="693.41,849.42 690.98,852.15 688.52,853.27 686.03,852.79 683.52,850.69"/>
    </edge>
    <edge id=":4454706347_5" function="internal">
        <lane id=":4454706347_5_0" index="0" allow="pedestrian delivery bicycle" speed="3.65" length="4.67" shape="693.41,849.42 692.07,849.96 691.19,849.84 690.75,849.06 690.77,847.61"/>
    </edge>
    <edge id=":4454706347_6" function="internal">
        <lane id=":4454706347_6_0" index="0" allow="pedestrian delivery bicycle" speed="5.05" length="6.00" shape="685.92,848.59 687.11,849.53 688.31,849.68 689.53,849.05 690.77,847.61"/>
    </edge>
    <edge id=":4454706347_7" function="internal">
        <lane id=":4454706347_7_0" index="0" allow="pedestrian delivery bicycle" speed="5.56" length="10.69" shape="685.92,848.59 688.05,850.81 689.90,852.08 692.05,852.82 695.10,853.39"/>
    </edge>
    <edge id=":4454706347_8" function="internal">
        <lane id=":4454706347_8_0" index="0" allow="pedestrian delivery bicycle" speed="3.65" length="4.67" shape="685.92,848.59 686.11,850.02 685.77,850.84 684.91,851.07 683.52,850.69"/>
    </edge>
    <edge id=":4454706360_0" function="internal">
        <lane id=":4454706360_0_0" index="0" allow="pedestrian delivery bicycle" speed="3.65" length="4.67" shape="3143.56,561.67 3144.94,561.23 3145.81,561.42 3146.19,562.23 3146.06,563.67"/>
    </edge>
    <edge id=":4471170945_0" function="internal">
        <lane id=":4471170945_0_0" index="0" allow="pedestrian delivery bicycle" speed="3.65" length="4.67" shape="2765.61,925.87 2766.39,924.65 2767.18,924.24 2767.99,924.62 2768.81,925.81"/>
    </edge>
    <edge id=":4471170946_0" function="internal">
        <lane id=":4471170946_0_0" index="0" allow="pedestrian delivery bicycle" speed="3.65" length="4.67" shape="2780.01,1486.58 2779.23,1487.80 2778.44,1488.21 2777.63,1487.83 2776.81,1486.65"/>
    </edge>
    <edge id=":4471170947_0" function="internal">
        <lane id=":4471170947_0_0" index="0" allow="pedestrian delivery bicycle" speed="3.65" length="4.67" shape="2777.51,1640.69 2778.32,1639.50 2779.12,1639.10 2779.92,1639.51 2780.71,1640.71"/>
    </edge>
    <edge id=":4471170948_0" function="internal">
        <lane id=":4471170948_0_0" index="0" allow="pedestrian delivery bicycle" speed="3.65" length="4.67" shape="2779.52,1805.69 2778.71,1806.88 2777.91,1807.28 2777.11,1806.87 2776.32,1805.66"/>
    </edge>
    <edge id=":47758142-AddedOffRampNode_0" function="internal">
        <lane id=":47758142-AddedOffRampNode_0_0" index="0" allow="private emergency authority army vip passenger hov taxi bus coach delivery truck trailer motorcycle evehicle custom1 custom2" speed="27.78" length="8.61" shape="1197.75,1328.70 1200.42,1329.76 1202.87,1329.01 1205.31,1328.25 1207.98,1329.32"/>
        <lane id=":47758142-AddedOffRampNode_0_1" index="1" allow="private emergency authority army vip passenger hov taxi bus coach delivery truck trailer motorcycle evehicle custom1 custom2" speed="27.78" length="8.61" shape="1197.75,1328.70 1199.91,1329.98 1201.79,1330.19 1203.67,1330.41 1205.83,1331.69"/>
        <lane id=":47758142-AddedOffRampNode_0_2" index="2" allow="private emergency authority army vip passenger hov taxi bus coach delivery truck trailer motorcycle evehicle custom1 custom2" speed="27.78" length="8.61" shape="1197.75,1328.70 1203.69,1334.06"/>
        <lane id=":47758142-AddedOffRampNode_0_3" index="3" allow="private emergency authority army vip passenger hov taxi bus coach delivery truck trailer motorcycle evehicle custom1 custom2" speed="27.78" length="8.61" shape="1195.61,1331.07 1201.54,1336.44"/>
        <lane id=":47758142-AddedOffRampNode_0_4" index="4" allow="private emergency authority army vip passenger hov taxi bus coach delivery truck trailer motorcycle evehicle custom1 custom2" speed="27.78" length="8.61" shape="1193.46,1333.45 1199.40,1338.81"/>
        <lane id=":47758142-AddedOffRampNode_0_5" index="5" allow="private emergency authority army vip passenger hov taxi bus coach delivery truck trailer motorcycle evehicle custom1 custom2" speed="27.78" length="8.61" shape="1191.32,1335.82 1197.25,1341.19"/>
    </edge>
    <edge id=":607497576_0" function="internal">
        <lane id=":607497576_0_0" index="0" allow="private emergency authority army vip passenger hov taxi bus coach delivery truck trailer motorcycle evehicle custom1 custom2" speed="25.00" length="3.19" shape="1704.66,1847.13 1702.21,1844.94"/>
        <lane id=":607497576_0_1" index="1" allow="private emergency authority army vip passenger hov taxi bus coach delivery truck trailer motorcycle evehicle custom1 custom2" speed="25.00" length="3.19" shape="1706.66,1844.62 1704.36,1842.57"/>
    </edge>
    <edge id=":607497576_2" function="internal">
        <lane id=":607497576_2_0" index="0" allow="private emergency authority army vip passenger hov taxi bus coach delivery truck trailer motorcycle evehicle custom1 custom2" speed="27.78" length="2.68" shape="1708.70,1842.06 1706.51,1840.19"/>
        <lane id=":607497576_2_1" index="1" allow="private emergency authority army vip passenger hov taxi bus coach delivery truck trailer motorcycle evehicle custom1 custom2" speed="27.78" length="2.68" shape="1710.70,1839.56 1708.66,1837.82"/>
        <lane id=":607497576_2_2" index="2" allow="private emergency authority army vip passenger hov taxi bus coach delivery truck trailer motorcycle evehicle custom1 custom2" speed="27.78" length="2.68" shape="1712.70,1837.06 1710.81,1835.45"/>
    </edge>
    <edge id=":607497578_0" function="internal">
        <lane id=":607497578_0_0" index="0" allow="private emergency authority army vip passenger hov taxi bus coach delivery truck trailer motorcycle evehicle custom1 custom2" speed="27.78" length="8.17" shape="1557.45,1705.14 1555.49,1703.70 1553.92,1703.01 1552.37,1702.31 1550.45,1700.82"/>
        <lane id=":607497578_0_1" index="1" allow="private emergency authority army vip passenger hov taxi bus coach delivery truck trailer motorcycle evehicle custom1 custom2" speed="27.78" length="8.17" shape="1559.60,1702.77 1557.66,1701.35 1556.10,1700.67 1554.56,1699.97 1552.66,1698.51"/>
        <lane id=":607497578_0_2" index="2" allow="private emergency authority army vip passenger hov taxi bus coach delivery truck trailer motorcycle evehicle custom1 custom2" speed="27.78" length="8.17" shape="1561.75,1700.40 1559.82,1698.99 1558.28,1698.32 1556.75,1697.64 1554.86,1696.19"/>
        <lane id=":607497578_0_3" index="3" allow="private emergency authority army vip passenger hov taxi bus coach delivery truck trailer motorcycle evehicle custom1 custom2" speed="27.78" length="8.17" shape="1561.75,1700.40 1560.17,1698.63 1559.38,1697.16 1558.61,1695.68 1557.07,1693.87"/>
    </edge>
    <edge id=":607498000_0" function="internal">
        <lane id=":607498000_0_0" index="0" allow="private emergency authority army vip passenger hov taxi bus coach delivery truck trailer motorcycle evehicle custom1 custom2" speed="30.83" length="0.30" shape="1515.49,1613.26 1515.71,1613.44"/>
        <lane id=":607498000_0_1" index="1" allow="private emergency authority army vip passenger hov taxi bus coach delivery truck trailer motorcycle evehicle custom1 custom2" speed="30.83" length="0.30" shape="1513.41,1615.69 1513.65,1615.89"/>
    </edge>
    <edge id=":7783141923_0" function="internal">
        <lane id=":7783141923_0_0" index="0" allow="private emergency authority army vip passenger hov taxi bus coach delivery truck trailer motorcycle evehicle custom1 custom2" speed="27.78" length="8.20" shape="1369.17,1495.89 1371.03,1497.38 1372.55,1498.09 1374.08,1498.79 1375.98,1500.24"/>
        <lane id=":7783141923_0_1" index="1" allow="private emergency authority army vip passenger hov taxi bus coach delivery truck trailer motorcycle evehicle custom1 custom2" speed="27.78" length="8.20" shape="1366.92,1498.17 1368.80,1499.67 1370.33,1500.39 1371.87,1501.10 1373.79,1502.57"/>
        <lane id=":7783141923_0_2" index="2" allow="private emergency authority army vip passenger hov taxi bus coach delivery truck trailer motorcycle evehicle custom1 custom2" speed="27.78" length="8.20" shape="1364.67,1500.45 1366.57,1501.96 1368.11,1502.69 1369.66,1503.41 1371.59,1504.89"/>
    </edge>
    <edge id=":7984915437_0" function="internal">
        <lane id=":7984915437_0_0" index="0" disallow="tram rail_urban rail rail_electric rail_fast ship container cable_car subway aircraft wheelchair scooter drone" speed="3.65" length="4.67" shape="2977.51,1985.71 2977.87,1984.31 2978.49,1983.67 2979.38,1983.78 2980.53,1984.65"/>
    </edge>
    <edge id=":7984915450_0" function="internal">
        <lane id=":7984915450_0_0" index="0" allow="pedestrian delivery bicycle" speed="9.72" length="0.62" shape="2578.13,2251.68 2577.95,2251.63 2577.83,2251.58 2577.72,2251.53 2577.55,2251.46"/>
    </edge>
    <edge id=":7984915450_1" function="internal">
        <lane id=":7984915450_1_0" index="0" disallow="tram rail_urban rail rail_electric rail_fast ship container cable_car subway aircraft wheelchair scooter drone" speed="3.65" length="2.34" shape="2578.13,2251.68 2577.22,2250.56 2577.08,2249.68"/>
    </edge>
    <edge id=":7984915450_3" function="internal">
        <lane id=":7984915450_3_0" index="0" disallow="tram rail_urban rail rail_electric rail_fast ship container cable_car subway aircraft wheelchair scooter drone" speed="3.65" length="2.34" shape="2577.08,2249.68 2577.70,2249.03 2579.08,2248.63"/>
    </edge>
    <edge id=":7984915450_2" function="internal">
        <lane id=":7984915450_2_0" index="0" allow="pedestrian delivery bicycle" speed="9.72" length="0.21" shape="2578.89,2248.55 2578.94,2248.58 2578.98,2248.59 2579.02,2248.61 2579.08,2248.63"/>
    </edge>

    <edge id="-448461428" from="4454706360" to="4454706347" priority="1" type="highway.service" shape="3144.81,562.67 3095.19,624.73 2988.16,616.63 2850.21,761.27 2828.79,775.94 2805.89,775.44 2780.38,758.73 2762.40,737.50 2754.94,701.87 2750.91,496.34 2741.20,0.00 1246.53,32.17 975.90,431.28 734.86,785.97 688.43,853.88">
        <lane id="-448461428_0" index="0" allow="pedestrian delivery bicycle" speed="5.56" length="3713.29" shape="3146.06,563.67 3095.91,626.39 2988.80,618.28 2851.25,762.50 2829.27,777.55 2805.39,777.03 2779.31,759.94 2760.91,738.22 2753.34,702.05 2749.31,496.38 2739.63,1.63 1247.39,33.75 977.23,432.18 736.18,786.88 693.41,849.42">
            <param key="origId" value="448461428"/>
        </lane>
    </edge>
    <edge id="-450196354" from="4471170946" to="4471170945" priority="1" type="highway.service" shape="2778.41,1486.61 2771.99,1165.20 2767.21,925.84">
        <lane id="-450196354_0" index="0" allow="pedestrian delivery bicycle" speed="5.56" length="560.89" shape="2776.81,1486.65 2770.39,1165.23 2765.61,925.87">
            <param key="origId" value="450196354"/>
        </lane>
    </edge>
    <edge id="-450196355" from="4471170948" to="4471170947" priority="1" type="highway.service" shape="2777.92,1805.68 2779.01,1655.20 2779.11,1640.70">
        <lane id="-450196355_0" index="0" allow="pedestrian delivery bicycle" speed="5.56" length="164.98" shape="2776.32,1805.66 2777.41,1655.18 2777.51,1640.69">
            <param key="origId" value="450196355"/>
        </lane>
    </edge>
    <edge id="-856368766#0" from="4454706347" to="4454706340" priority="1" type="highway.service" shape="688.43,853.88 676.17,839.86 485.68,664.68 218.79,416.68 69.93,278.43 62.41,230.00 55.10,213.97 25.76,184.07">
        <lane id="-856368766#0_0" index="0" allow="pedestrian delivery bicycle" speed="5.56" length="947.72" shape="683.52,850.69 675.02,840.98 484.59,665.85 217.70,417.85 68.44,279.22 60.86,230.46 53.76,214.89 24.62,185.19">
            <param key="origId" value="856368766"/>
        </lane>
    </edge>
    <edge id="-856368766#1" from="7984915450" to="4454706347" priority="1" type="highway.service" shape="2578.41,2250.09 2555.12,2239.37 2532.27,2217.75 2528.44,2198.02 2490.18,2185.78 2366.33,2128.52 2113.45,1998.09 1876.21,1867.49 1727.37,1752.54 1616.19,1663.56 1486.90,1561.81 1458.95,1535.84 1364.98,1461.05 729.87,872.44 720.99,859.44 688.43,853.88">
        <lane id="-856368766#1_0" index="0" allow="pedestrian delivery bicycle" speed="5.56" length="2369.77" shape="2577.55,2251.46 2554.21,2240.71 2530.80,2218.56 2527.05,2199.25 2489.60,2187.27 2365.62,2129.95 2112.70,1999.50 1875.33,1868.83 1726.38,1753.80 1615.20,1664.81 1485.85,1563.03 1457.91,1537.06 1363.94,1462.27 728.66,873.49 720.05,860.90 694.56,856.55">
            <param key="origId" value="856368766"/>
        </lane>
    </edge>
    <edge id="-856368767" from="7984915437" to="7984915450" name="운염로" priority="3" type="highway.residential" shape="2979.02,1985.18 2987.98,2010.68 2988.85,2053.88 3013.02,2117.26 3008.30,2164.14 3009.59,2186.54 3002.02,2205.87 2973.87,2236.11 2958.74,2265.55 2837.31,2339.06 2806.73,2339.85 2644.87,2270.82 2578.41,2250.09">
        <lane id="-856368767_0" index="0" disallow="tram rail_urban rail rail_electric rail_fast ship container cable_car subway aircraft wheelchair scooter drone" speed="13.89" length="724.33" shape="2980.53,1984.65 2989.57,2010.40 2990.45,2053.57 3014.65,2117.05 3009.91,2164.18 3011.20,2186.80 3003.40,2206.74 2975.19,2237.04 2959.96,2266.68 2837.77,2340.65 2806.43,2341.46 2644.31,2272.32 2578.13,2251.68">
            <param key="origId" value="856368767"/>
        </lane>
    </edge>
    <edge id="1026350957" from="3226562116" to="607498000" priority="14" type="highway.motorway" spreadType="center" shape="1278.13,1394.87 1375.75,1495.29 1401.83,1518.69 1514.56,1614.57">
        <lane id="1026350957_0" index="0" allow="private emergency authority army vip passenger hov taxi bus coach delivery truck trailer motorcycle evehicle custom1 custom2" speed="39.44" length="321.07" shape="1280.58,1395.09 1376.85,1494.14 1402.88,1517.49 1515.49,1613.26">
            <param key="origId" value="1026350957 833763030"/>
        </lane>
        <lane id="1026350957_1" index="1" allow="private emergency authority army vip passenger hov taxi bus coach delivery truck trailer motorcycle evehicle custom1 custom2" speed="39.44" length="321.07" shape="1278.29,1397.32 1374.64,1496.45 1400.78,1519.90 1513.41,1615.69">
            <param key="origId" value="1026350957 833763030"/>
        </lane>
    </edge>
    <edge id="1247489574#1" from="3226562116" to="7783141923" name="인천국제공항고속도로" priority="14" type="highway.motorway" spreadType="center">
        <lane id="1247489574#1_0" index="0" allow="private emergency authority army vip passenger hov taxi bus coach delivery truck trailer motorcycle evehicle custom1 custom2" speed="27.78" length="134.09" shape="1276.03,1399.52 1371.42,1493.61">
            <param key="origId" value="1247489574"/>
        </lane>
        <lane id="1247489574#1_1" index="1" allow="private emergency authority army vip passenger hov taxi bus coach delivery truck trailer motorcycle evehicle custom1 custom2" speed="27.78" length="134.09" shape="1273.73,1401.75 1369.17,1495.89">
            <param key="origId" value="1247489574"/>
        </lane>
        <lane id="1247489574#1_2" index="2" allow="private emergency authority army vip passenger hov taxi bus coach delivery truck trailer motorcycle evehicle custom1 custom2" speed="27.78" length="134.09" shape="1271.44,1403.98 1366.92,1498.17">
            <param key="origId" value="1247489574"/>
        </lane>
        <lane id="1247489574#1_3" index="3" allow="private emergency authority army vip passenger hov taxi bus coach delivery truck trailer motorcycle evehicle custom1 custom2" speed="27.78" length="134.09" shape="1269.14,1406.21 1364.67,1500.45">
            <param key="origId" value="1247489574"/>
        </lane>
        <param key="ref" value="130"/>
    </edge>
    <edge id="224622207" from="607497688" to="607497576" name="인천국제공항고속도로" priority="14" type="highway.motorway" spreadType="center" shape="4844.98,3137.30 2534.80,2275.99 2248.92,2170.45 2231.33,2163.96 2150.92,2128.87 2067.06,2093.34 1972.75,2037.10 1890.79,1982.63 1816.29,1923.82 1709.66,1838.73">
        <lane id="224622207_0" index="0" allow="private emergency authority army vip passenger hov taxi bus coach delivery truck trailer motorcycle evehicle custom1 custom2" speed="27.78" length="3406.03" shape="4843.86,3140.30 2533.69,2278.99 2247.81,2173.45 2230.13,2166.93 2149.66,2131.81 2065.61,2096.20 1971.04,2039.81 1888.91,1985.23 1814.30,1926.33 1708.70,1842.06">
            <param key="origId" value="224622207 47758159"/>
        </lane>
        <lane id="224622207_1" index="1" allow="private emergency authority army vip passenger hov taxi bus coach delivery truck trailer motorcycle evehicle custom1 custom2" speed="27.78" length="3406.03" shape="4844.98,3137.30 2534.80,2275.99 2248.92,2170.45 2231.33,2163.96 2150.92,2128.87 2067.06,2093.34 1972.75,2037.10 1890.79,1982.63 1816.29,1923.82 1710.70,1839.56">
            <param key="origId" value="224622207 47758159"/>
        </lane>
        <lane id="224622207_2" index="2" allow="private emergency authority army vip passenger hov taxi bus coach delivery truck trailer motorcycle evehicle custom1 custom2" speed="27.78" length="3406.03" shape="4846.10,3134.31 2535.92,2272.99 2250.02,2167.45 2232.52,2160.99 2152.18,2125.93 2068.51,2090.48 1974.46,2034.39 1892.67,1980.04 1818.28,1921.32 1712.70,1837.06">
            <param key="origId" value="224622207 47758159"/>
        </lane>
        <param key="ref" value="130"/>
    </edge>
    <edge id="318838649" from="318838649-AddedOnRampNode" to="607497578" name="인천국제공항고속도로" priority="14" type="highway.motorway" spreadType="center">
        <lane id="318838649_0" index="0" allow="private emergency authority army vip passenger hov taxi bus coach delivery truck trailer motorcycle evehicle custom1 custom2" speed="27.78" length="98.49" shape="1630.44,1771.27 1557.45,1705.14">
            <param key="origId" value="318838649"/>
        </lane>
        <lane id="318838649_1" index="1" allow="private emergency authority army vip passenger hov taxi bus coach delivery truck trailer motorcycle evehicle custom1 custom2" speed="27.78" length="98.49" shape="1632.59,1768.90 1559.60,1702.77">
            <param key="origId" value="318838649"/>
        </lane>
        <lane id="318838649_2" index="2" allow="private emergency authority army vip passenger hov taxi bus coach delivery truck trailer motorcycle evehicle custom1 custom2" speed="27.78" length="98.49" shape="1634.73,1766.53 1561.75,1700.40">
            <param key="origId" value="318838649"/>
        </lane>
        <param key="ref" value="130"/>
    </edge>
    <edge id="318838649-AddedOnRampEdge" from="607497576" to="318838649-AddedOnRampNode" name="인천국제공항고속도로" priority="14" type="highway.motorway" spreadType="center" shape="1707.51,1841.10 1633.40,1773.96">
        <lane id="318838649-AddedOnRampEdge_0" index="0" allow="private emergency authority army vip passenger hov taxi bus coach delivery truck trailer motorcycle evehicle custom1 custom2" speed="27.78" length="94.65" acceleration="1" shape="1702.21,1844.94 1632.07,1781.39">
            <param key="origId" value="318838649"/>
        </lane>
        <lane id="318838649-AddedOnRampEdge_1" index="1" allow="private emergency authority army vip passenger hov taxi bus coach delivery truck trailer motorcycle evehicle custom1 custom2" speed="27.78" length="94.65" acceleration="1" shape="1704.36,1842.57 1634.22,1779.01">
            <param key="origId" value="318838649"/>
        </lane>
        <lane id="318838649-AddedOnRampEdge_2" index="2" allow="private emergency authority army vip passenger hov taxi bus coach delivery truck trailer motorcycle evehicle custom1 custom2" speed="27.78" length="94.65" shape="1706.51,1840.19 1636.37,1776.64">
            <param key="origId" value="318838649"/>
        </lane>
        <lane id="318838649-AddedOnRampEdge_3" index="3" allow="private emergency authority army vip passenger hov taxi bus coach delivery truck trailer motorcycle evehicle custom1 custom2" speed="27.78" length="94.65" shape="1708.66,1837.82 1638.51,1774.27">
            <param key="origId" value="318838649"/>
        </lane>
        <lane id="318838649-AddedOnRampEdge_4" index="4" allow="private emergency authority army vip passenger hov taxi bus coach delivery truck trailer motorcycle evehicle custom1 custom2" speed="27.78" length="94.65" shape="1710.81,1835.45 1640.66,1771.90">
            <param key="origId" value="318838649"/>
        </lane>
        <param key="ref" value="130"/>
    </edge>
    <edge id="448461428" from="4454706347" to="4454706360" priority="1" type="highway.service" shape="688.43,853.88 734.86,785.97 975.90,431.28 1246.53,32.17 2741.20,0.00 2750.91,496.34 2754.94,701.87 2762.40,737.50 2780.38,758.73 2805.89,775.44 2828.79,775.94 2850.21,761.27 2988.16,616.63 3095.19,624.73 3144.81,562.67">
        <lane id="448461428_0" index="0" allow="pedestrian delivery bicycle" speed="5.56" length="3714.93" shape="690.77,847.61 733.54,785.07 974.58,430.38 1245.67,30.59 2742.77,-1.63 2752.51,496.31 2756.54,701.69 2763.88,736.77 2781.45,757.52 2806.38,773.85 2828.31,774.33 2849.17,760.05 2987.53,614.97 3094.46,623.07 3143.56,561.67">
            <param key="origId" value="448461428"/>
        </lane>
    </edge>
    <edge id="450196354" from="4471170945" to="4471170946" priority="1" type="highway.service" shape="2767.21,925.84 2771.99,1165.20 2778.41,1486.61">
        <lane id="450196354_0" index="0" allow="pedestrian delivery bicycle" speed="5.56" length="560.89" shape="2768.81,925.81 2773.59,1165.17 2780.01,1486.58">
            <param key="origId" value="450196354"/>
        </lane>
    </edge>
    <edge id="450196355" from="4471170947" to="4471170948" priority="1" type="highway.service" shape="2779.11,1640.70 2779.01,1655.20 2777.92,1805.68">
        <lane id="450196355_0" index="0" allow="pedestrian delivery bicycle" speed="5.56" length="164.98" shape="2780.71,1640.71 2780.61,1655.21 2779.52,1805.69">
            <param key="origId" value="450196355"/>
        </lane>
    </edge>
    <edge id="47758142" from="607497485" to="47758142-AddedOffRampNode" name="인천국제공항고속도로" priority="14" type="highway.motorway" spreadType="center" shape="5.49,257.95 1034.20,1187.37 1197.50,1334.94">
        <lane id="47758142_0" index="0" allow="private emergency authority army vip passenger hov taxi bus coach delivery truck trailer motorcycle evehicle custom1 custom2" speed="27.78" length="1602.49" shape="8.71,254.38 1037.41,1183.81 1197.75,1328.70">
            <param key="origId" value="47758142 1247489574"/>
        </lane>
        <lane id="47758142_1" index="1" allow="private emergency authority army vip passenger hov taxi bus coach delivery truck trailer motorcycle evehicle custom1 custom2" speed="27.78" length="1602.49" shape="6.56,256.76 1035.27,1186.19 1195.61,1331.07">
            <param key="origId" value="47758142 1247489574"/>
        </lane>
        <lane id="47758142_2" index="2" allow="private emergency authority army vip passenger hov taxi bus coach delivery truck trailer motorcycle evehicle custom1 custom2" speed="27.78" length="1602.49" shape="4.42,259.13 1033.12,1188.56 1193.46,1333.45">
            <param key="origId" value="47758142 1247489574"/>
        </lane>
        <lane id="47758142_3" index="3" allow="private emergency authority army vip passenger hov taxi bus coach delivery truck trailer motorcycle evehicle custom1 custom2" speed="27.78" length="1602.49" shape="2.27,261.51 1030.98,1190.93 1191.32,1335.82">
            <param key="origId" value="47758142 1247489574"/>
        </lane>
        <param key="ref" value="130"/>
    </edge>
    <edge id="47758142-AddedOffRampEdge" from="47758142-AddedOffRampNode" to="3226562116" name="인천국제공항고속도로" priority="14" type="highway.motorway" spreadType="center" shape="1199.65,1332.57 1273.84,1399.61">