<?xml version="1.0" encoding="UTF-8"?>

<!-- generated on 2024-10-21 00:00:32.701890 by randomTrips.py v1_20_0+0002-343658e7c64
<configuration>
    <net-file value="osm.net.xml.gz"/>
    <output-trip-file value="osm.passenger.trips.xml"/>
    <route-file value="osm.passenger.rou.xml"/>
    <prefix value="veh"/>
    <trip-attributes value="departLane=&quot;best&quot;"/>
    <fringe-start-attributes value="departSpeed=&quot;max&quot;"/>
    <vehicle-class value="passenger"/>
    <lanes value="True"/>
    <fringe-factor value="10"/>
    <allow-fringe.min-length value="1000.0"/>
    <via-edge-types value="highway.motorway,highway.motorway_link,highway.trunk_link,highway.primary_link,highway.secondary_link,highway.tertiary_link"/>
    <min-distance value="300.0"/>
    <min-distance.fringe value="10.0"/>
    <remove-loops value="True"/>
    <validate value="True"/>
    <end value="300.0"/>
    <insertion-density value="500.0"/>
</configuration>
-->

<!-- generated on 2024-10-21 00:00:32 by Eclipse SUMO duarouter Version 1.20.0
<configuration xmlns:xsi="http://www.w3.org/2001/XMLSchema-instance" xsi:noNamespaceSchemaLocation="http://sumo.dlr.de/xsd/duarouterConfiguration.xsd">

    <input>
        <net-file value="osm.net.xml.gz"/>
        <route-files value="osm.passenger.trips.xml"/>
    </input>

    <output>
        <output-file value="osm.passenger.rou.xml"/>
        <alternatives-output value="NUL"/>
    </output>

    <processing>
        <remove-loops value="true"/>
    </processing>

    <time>
        <begin value="0.0"/>
        <end value="300.0"/>
    </time>

    <report>
        <no-warnings value="true"/>
        <ignore-errors value="true"/>
        <no-step-log value="true"/>
    </report>

</configuration>
-->

<routes xmlns:xsi="http://www.w3.org/2001/XMLSchema-instance" xsi:noNamespaceSchemaLocation="http://sumo.dlr.de/xsd/routes_file.xsd">
    <vType id="veh_passenger" vClass="passenger"/>
    <vehicle id="veh0" type="veh_passenger" depart="0.00" departLane="best" departSpeed="max">
        <route edges="47758142 47758142-AddedOffRampEdge 1247489574#1 47758164"/>
    </vehicle>
    <vehicle id="veh1" type="veh_passenger" depart="0.13" departLane="best" departSpeed="max">
        <route edges="47758142 47758142-AddedOffRampEdge 1247489574#1 47758164"/>
    </vehicle>
    <vehicle id="veh2" type="veh_passenger" depart="0.26" departLane="best" departSpeed="max">
        <route edges="224622207 318838649-AddedOnRampEdge 318838649 47758165"/>
    </vehicle>
    <vehicle id="veh4" type="veh_passenger" depart="0.53" departLane="best" departSpeed="max">
        <route edges="224622207 318838649-AddedOnRampEdge 318838649 47758165"/>
    </vehicle>
    <vehicle id="veh5" type="veh_passenger" depart="0.66" departLane="best" departSpeed="max">
        <route edges="47758248 318838649-AddedOnRampEdge 318838649 47758165"/>
    </vehicle>
    <vehicle id="veh6" type="veh_passenger" depart="0.79" departLane="best" departSpeed="max">
        <route edges="47758248 318838649-AddedOnRampEdge 318838649 47758165"/>
    </vehicle>
    <vehicle id="veh8" type="veh_passenger" depart="1.05" departLane="best" departSpeed="max">
        <route edges="47758248 318838649-AddedOnRampEdge 318838649 47758165"/>
    </vehicle>
    <vehicle id="veh10" type="veh_passenger" depart="1.31" departLane="best" departSpeed="max">
        <route edges="224622207 318838649-AddedOnRampEdge 318838649 47758165"/>
    </vehicle>
    <vehicle id="veh11" type="veh_passenger" depart="1.44" departLane="best" departSpeed="max">
        <route edges="47758248 318838649-AddedOnRampEdge 318838649 47758165"/>
    </vehicle>
    <vehicle id="veh12" type="veh_passenger" depart="1.58" departLane="best" departSpeed="max">
        <route edges="47758248 318838649-AddedOnRampEdge 318838649 47758165"/>
    </vehicle>
    <vehicle id="veh13" type="veh_passenger" depart="1.71" departLane="best" departSpeed="max">
        <route edges="47758142 47758142-AddedOffRampEdge 1247489574#1 47758164"/>
    </vehicle>
    <vehicle id="veh16" type="veh_passenger" depart="2.10" departLane="best" departSpeed="max">
        <route edges="224622207 318838649-AddedOnRampEdge 318838649 47758165"/>
    </vehicle>
    <vehicle id="veh17" type="veh_passenger" depart="2.23" departLane="best" departSpeed="max">
        <route edges="47758248 318838649-AddedOnRampEdge 318838649 47758165"/>
    </vehicle>
    <vehicle id="veh19" type="veh_passenger" depart="2.49" departLane="best" departSpeed="max">
        <route edges="47758248 318838649-AddedOnRampEdge 318838649 47758165"/>
    </vehicle>
    <vehicle id="veh20" type="veh_passenger" depart="2.63" departLane="best" departSpeed="max">
        <route edges="47758248 318838649-AddedOnRampEdge 318838649 47758165"/>
    </vehicle>
    <vehicle id="veh21" type="veh_passenger" depart="2.76" departLane="best" departSpeed="max">
        <route edges="47758142 47758142-AddedOffRampEdge 1247489574#1 47758164"/>
    </vehicle>
    <vehicle id="veh22" type="veh_passenger" depart="2.89" departLane="best" departSpeed="max">
        <route edges="47758142 47758142-AddedOffRampEdge 1026350957 47758240"/>
    </vehicle>
    <vehicle id="veh23" type="veh_passenger" depart="3.02" departLane="best" departSpeed="max">
        <route edges="47758248 318838649-AddedOnRampEdge 318838649 47758165"/>
    </vehicle>
    <vehicle id="veh25" type="veh_passenger" depart="3.28" departLane="best" departSpeed="max">
        <route edges="224622207 318838649-AddedOnRampEdge 318838649 47758165"/>
    </vehicle>
    <vehicle id="veh27" type="veh_passenger" depart="3.54" departLane="best" departSpeed="max">
        <route edges="47758248 318838649-AddedOnRampEdge 318838649 47758165"/>
    </vehicle>
    <vehicle id="veh29" type="veh_passenger" depart="3.81" departLane="best" departSpeed="max">
        <route edges="224622207 318838649-AddedOnRampEdge 318838649 47758165"/>
    </vehicle>
    <vehicle id="veh30" type="veh_passenger" depart="3.94" departLane="best" departSpeed="max">
        <route edges="224622207 318838649-AddedOnRampEdge 318838649 47758165"/>
    </vehicle>
    <vehicle id="veh32" type="veh_passenger" depart="4.20" departLane="best" departSpeed="max">
        <route edges="47758142 47758142-AddedOffRampEdge 1247489574#1 47758164"/>
    </vehicle>
    <vehicle id="veh33" type="veh_passenger" depart="4.33" departLane="best" departSpeed="max">
        <route edges="224622207 318838649-AddedOnRampEdge 318838649 47758165"/>
    </vehicle>
    <vehicle id="veh34" type="veh_passenger" depart="4.46" departLane="best" departSpeed="max">
        <route edges="47758142 47758142-AddedOffRampEdge 1247489574#1 47758164"/>
    </vehicle>
    <vehicle id="veh39" type="veh_passenger" depart="5.12" departLane="best" departSpeed="max">
        <route edges="47758142 47758142-AddedOffRampEdge 1247489574#1 47758164"/>
    </vehicle>
    <vehicle id="veh40" type="veh_passenger" depart="5.25" departLane="best" departSpeed="max">
        <route edges="47758142 47758142-AddedOffRampEdge 1247489574#1 47758164"/>
    </vehicle>
    <vehicle id="veh41" type="veh_passenger" depart="5.38" departLane="best" departSpeed="max">
        <route edges="47758142 47758142-AddedOffRampEdge 1026350957 47758240"/>
    </vehicle>
    <vehicle id="veh42" type="veh_passenger" depart="5.51" departLane="best" departSpeed="max">
        <route edges="224622207 318838649-AddedOnRampEdge 318838649 47758165"/>
    </vehicle>
    <vehicle id="veh43" type="veh_passenger" depart="5.64" departLane="best" departSpeed="max">
        <route edges="47758248 318838649-AddedOnRampEdge 318838649 47758165"/>
    </vehicle>
    <vehicle id="veh44" type="veh_passenger" depart="5.78" departLane="best" departSpeed="max">
        <route edges="224622207 318838649-AddedOnRampEdge 318838649 47758165"/>
    </vehicle>
    <vehicle id="veh47" type="veh_passenger" depart="6.17" departLane="best" departSpeed="max">
        <route edges="224622207 318838649-AddedOnRampEdge 318838649 47758165"/>
    </vehicle>
    <vehicle id="veh48" type="veh_passenger" depart="6.30" departLane="best" departSpeed="max">
        <route edges="47758248 318838649-AddedOnRampEdge 318838649 47758165"/>
    </vehicle>
    <vehicle id="veh49" type="veh_passenger" depart="6.43" departLane="best" departSpeed="max">
        <route edges="47758142 47758142-AddedOffRampEdge 1026350957 47758240"/>
    </vehicle>
    <vehicle id="veh51" type="veh_passenger" depart="6.70" departLane="best" departSpeed="max">
        <route edges="224622207 318838649-AddedOnRampEdge 318838649 47758165"/>
    </vehicle>
    <vehicle id="veh52" type="veh_passenger" depart="6.83" departLane="best" departSpeed="max">
        <route edges="47758142 47758142-AddedOffRampEdge 1247489574#1 47758164"/>
    </vehicle>
    <vehicle id="veh54" type="veh_passenger" depart="7.09" departLane="best" departSpeed="max">
        <route edges="47758142 47758142-AddedOffRampEdge 1026350957 47758240"/>
    </vehicle>
    <vehicle id="veh55" type="veh_passenger" depart="7.22" departLane="best" departSpeed="max">
        <route edges="47758142 47758142-AddedOffRampEdge 1247489574#1 47758164"/>
    </vehicle>
    <vehicle id="veh57" type="veh_passenger" depart="7.48" departLane="best" departSpeed="max">
        <route edges="47758142 47758142-AddedOffRampEdge 1247489574#1 47758164"/>
    </vehicle>
    <vehicle id="veh58" type="veh_passenger" depart="7.61" departLane="best" departSpeed="max">
        <route edges="47758142 47758142-AddedOffRampEdge 1247489574#1 47758164"/>
    </vehicle>
    <vehicle id="veh61" type="veh_passenger" depart="8.01" departLane="best" departSpeed="max">
        <route edges="47758142 47758142-AddedOffRampEdge 1026350957 47758240"/>
    </vehicle>
    <vehicle id="veh62" type="veh_passenger" depart="8.14" departLane="best" departSpeed="max">
        <route edges="47758248 318838649-AddedOnRampEdge 318838649 47758165"/>
    </vehicle>
    <vehicle id="veh63" type="veh_passenger" depart="8.27" departLane="best" departSpeed="max">
        <route edges="47758142 47758142-AddedOffRampEdge 1026350957 47758240"/>
    </vehicle>
    <vehicle id="veh65" type="veh_passenger" depart="8.53" departLane="best" departSpeed="max">
        <route edges="47758142 47758142-AddedOffRampEdge 1026350957 47758240"/>
    </vehicle>
    <vehicle id="veh69" type="veh_passenger" depart="9.06" departLane="best" departSpeed="max">
        <route edges="224622207 318838649-AddedOnRampEdge 318838649 47758165"/>
    </vehicle>
    <vehicle id="veh70" type="veh_passenger" depart="9.19" departLane="best" departSpeed="max">
        <route edges="47758142 47758142-AddedOffRampEdge 1247489574#1 47758164"/>
    </vehicle>
    <vehicle id="veh76" type="veh_passenger" depart="9.98" departLane="best" departSpeed="max">
        <route edges="47758142 47758142-AddedOffRampEdge 1247489574#1 47758164"/>
    </vehicle>
    <vehicle id="veh78" type="veh_passenger" depart="10.24" departLane="best" departSpeed="max">
        <route edges="224622207 318838649-AddedOnRampEdge 318838649 47758165"/>
    </vehicle>
    <vehicle id="veh79" type="veh_passenger" depart="10.37" departLane="best" departSpeed="max">
        <route edges="224622207 318838649-AddedOnRampEdge 318838649 47758165"/>
    </vehicle>
    <vehicle id="veh80" type="veh_passenger" depart="10.50" departLane="best" departSpeed="max">
        <route edges="47758142 47758142-AddedOffRampEdge 1247489574#1 47758164"/>
    </vehicle>
    <vehicle id="veh81" type="veh_passenger" depart="10.63" departLane="best" departSpeed="max">
        <route edges="47758142 47758142-AddedOffRampEdge 1247489574#1 47758164"/>
    </vehicle>
    <vehicle id="veh83" type="veh_passenger" depart="10.90" departLane="best" departSpeed="max">
        <route edges="47758142 47758142-AddedOffRampEdge 1247489574#1 47758164"/>
    </vehicle>
    <vehicle id="veh85" type="veh_passenger" depart="11.16" departLane="best" departSpeed="max">
        <route edges="47758142 47758142-AddedOffRampEdge 1247489574#1 47758164"/>
    </vehicle>
    <vehicle id="veh86" type="veh_passenger" depart="11.29" departLane="best" departSpeed="max">
        <route edges="47758142 47758142-AddedOffRampEdge 1247489574#1 47758164"/>
    </vehicle>
    <vehicle id="veh88" type="veh_passenger" depart="11.55" departLane="best" departSpeed="max">
        <route edges="47758248 318838649-AddedOnRampEdge 318838649 47758165"/>
    </vehicle>
    <vehicle id="veh89" type="veh_passenger" depart="11.68" departLane="best" departSpeed="max">
        <route edges="47758248 318838649-AddedOnRampEdge 318838649 47758165"/>
    </vehicle>
    <vehicle id="veh90" type="veh_passenger" depart="11.81" departLane="best" departSpeed="max">
        <route edges="47758142 47758142-AddedOffRampEdge 1026350957 47758240"/>
    </vehicle>
    <vehicle id="veh91" type="veh_passenger" depart="11.95" departLane="best" departSpeed="max">
        <route edges="47758142 47758142-AddedOffRampEdge 1026350957 47758240"/>
    </vehicle>
    <vehicle id="veh96" type="veh_passenger" depart="12.60" departLane="best" departSpeed="max">
        <route edges="47758142 47758142-AddedOffRampEdge 1247489574#1 47758164"/>
    </vehicle>
    <vehicle id="veh97" type="veh_passenger" depart="12.73" departLane="best" departSpeed="max">
        <route edges="47758142 47758142-AddedOffRampEdge 1247489574#1 47758164"/>
    </vehicle>
    <vehicle id="veh99" type="veh_passenger" depart="13.00" departLane="best" departSpeed="max">
        <route edges="47758248 318838649-AddedOnRampEdge 318838649 47758165"/>
    </vehicle>
    <vehicle id="veh100" type="veh_passenger" depart="13.13" departLane="best" departSpeed="max">
        <route edges="224622207 318838649-AddedOnRampEdge 318838649 47758165"/>
    </vehicle>
    <vehicle id="veh101" type="veh_passenger" depart="13.26" departLane="best" departSpeed="max">
        <route edges="224622207 318838649-AddedOnRampEdge 318838649 47758165"/>
    </vehicle>
    <vehicle id="veh102" type="veh_passenger" depart="13.39" departLane="best" departSpeed="max">
        <route edges="47758142 47758142-AddedOffRampEdge 1026350957 47758240"/>
    </vehicle>
    <vehicle id="veh103" type="veh_passenger" depart="13.52" departLane="best" departSpeed="max">
        <route edges="224622207 318838649-AddedOnRampEdge 318838649 47758165"/>
    </vehicle>
    <vehicle id="veh104" type="veh_passenger" depart="13.65" departLane="best" departSpeed="max">
        <route edges="47758142 47758142-AddedOffRampEdge 1247489574#1 47758164"/>
    </vehicle>
    <vehicle id="veh105" type="veh_passenger" depart="13.78" departLane="best" departSpeed="max">
        <route edges="224622207 318838649-AddedOnRampEdge 318838649 47758165"/>
    </vehicle>
    <vehicle id="veh106" type="veh_passenger" depart="13.92" departLane="best" departSpeed="max">
        <route edges="47758248 318838649-AddedOnRampEdge 318838649 47758165"/>
    </vehicle>
    <vehicle id="veh107" type="veh_passenger" depart="14.05" departLane="best" departSpeed="max">
        <route edges="47758248 318838649-AddedOnRampEdge 318838649 47758165"/>
    </vehicle>
    <vehicle id="veh108" type="veh_passenger" depart="14.18" departLane="best" departSpeed="max">
        <route edges="224622207 318838649-AddedOnRampEdge 318838649 47758165"/>
    </vehicle>
    <vehicle id="veh110" type="veh_passenger" depart="14.44" departLane="best" departSpeed="max">
        <route edges="47758142 47758142-AddedOffRampEdge 1247489574#1 47758164"/>
    </vehicle>
    <vehicle id="veh112" type="veh_passenger" depart="14.70" departLane="best" departSpeed="max">
        <route edges="47758142 47758142-AddedOffRampEdge 1247489574#1 47758164"/>
    </vehicle>
    <vehicle id="veh114" type="veh_passenger" depart="14.97" departLane="best" departSpeed="max">
        <route edges="47758142 47758142-AddedOffRampEdge 1247489574#1 47758164"/>
    </vehicle>
    <vehicle id="veh115" type="veh_passenger" depart="15.10" departLane="best" departSpeed="max">
        <route edges="224622207 318838649-AddedOnRampEdge 318838649 47758165"/>
    </vehicle>
    <vehicle id="veh116" type="veh_passenger" depart="15.23" departLane="best" departSpeed="max">
        <route edges="224622207 318838649-AddedOnRampEdge 318838649 47758165"/>
    </vehicle>
    <vehicle id="veh117" type="veh_passenger" depart="15.36" departLane="best" departSpeed="max">
        <route edges="47758142 47758142-AddedOffRampEdge 1247489574#1 47758164"/>
    </vehicle>
    <vehicle id="veh118" type="veh_passenger" depart="15.49" departLane="best" departSpeed="max">
        <route edges="47758142 47758142-AddedOffRampEdge 1247489574#1 47758164"/>
    </vehicle>
    <vehicle id="veh119" type="veh_passenger" depart="15.62" departLane="best" departSpeed="max">
        <route edges="47758142 47758142-AddedOffRampEdge 1026350957 47758240"/>
    </vehicle>
    <vehicle id="veh120" type="veh_passenger" depart="15.75" departLane="best" departSpeed="max">
        <route edges="224622207 318838649-AddedOnRampEdge 318838649 47758165"/>
    </vehicle>
    <vehicle id="veh122" type="veh_passenger" depart="16.02" departLane="best" departSpeed="max">
        <route edges="47758142 47758142-AddedOffRampEdge 1247489574#1 47758164"/>
    </vehicle>
    <vehicle id="veh123" type="veh_passenger" depart="16.15" departLane="best" departSpeed="max">
        <route edges="47758142 47758142-AddedOffRampEdge 1026350957 47758240"/>
    </vehicle>
    <vehicle id="veh126" type="veh_passenger" depart="16.54" departLane="best" departSpeed="max">
        <route edges="47758248 318838649-AddedOnRampEdge 318838649 47758165"/>
    </vehicle>
    <vehicle id="veh127" type="veh_passenger" depart="16.67" departLane="best" departSpeed="max">
        <route edges="47758248 318838649-AddedOnRampEdge 318838649 47758165"/>
    </vehicle>
    <vehicle id="veh128" type="veh_passenger" depart="16.80" departLane="best" departSpeed="max">
        <route edges="47758142 47758142-AddedOffRampEdge 1247489574#1 47758164"/>
    </vehicle>
    <vehicle id="veh129" type="veh_passenger" depart="16.93" departLane="best" departSpeed="max">
        <route edges="224622207 318838649-AddedOnRampEdge 318838649 47758165"/>
    </vehicle>
    <vehicle id="veh130" type="veh_passenger" depart="17.07" departLane="best" departSpeed="max">
        <route edges="47758142 47758142-AddedOffRampEdge 1247489574#1 47758164"/>
    </vehicle>
    <vehicle id="veh132" type="veh_passenger" depart="17.33" departLane="best" departSpeed="max">
        <route edges="224622207 318838649-AddedOnRampEdge 318838649 47758165"/>
    </vehicle>
    <vehicle id="veh133" type="veh_passenger" depart="17.46" departLane="best" departSpeed="max">
        <route edges="47758142 47758142-AddedOffRampEdge 1247489574#1 47758164"/>
    </vehicle>
    <vehicle id="veh134" type="veh_passenger" depart="17.59" departLane="best" departSpeed="max">
        <route edges="224622207 318838649-AddedOnRampEdge 318838649 47758165"/>
    </vehicle>
    <vehicle id="veh135" type="veh_passenger" depart="17.72" departLane="best" departSpeed="max">
        <route edges="47758142 47758142-AddedOffRampEdge 1247489574#1 47758164"/>
    </vehicle>
    <vehicle id="veh136" type="veh_passenger" depart="17.85" departLane="best" departSpeed="max">
        <route edges="47758142 47758142-AddedOffRampEdge 1247489574#1 47758164"/>
    </vehicle>
    <vehicle id="veh139" type="veh_passenger" depart="18.25" departLane="best" departSpeed="max">
        <route edges="47758142 47758142-AddedOffRampEdge 1026350957 47758240"/>
    </vehicle>
    <vehicle id="veh140" type="veh_passenger" depart="18.38" departLane="best" departSpeed="max">
        <route edges="47758142 47758142-AddedOffRampEdge 1247489574#1 47758164"/>
    </vehicle>
    <vehicle id="veh141" type="veh_passenger" depart="18.51" departLane="best" departSpeed="max">
        <route edges="224622207 318838649-AddedOnRampEdge 318838649 47758165"/>
    </vehicle>
    <vehicle id="veh142" type="veh_passenger" depart="18.64" departLane="best" departSpeed="max">
        <route edges="47758142 47758142-AddedOffRampEdge 1247489574#1 47758164"/>
    </vehicle>
    <vehicle id="veh143" type="veh_passenger" depart="18.77" departLane="best" departSpeed="max">
        <route edges="47758142 47758142-AddedOffRampEdge 1247489574#1 47758164"/>
    </vehicle>
    <vehicle id="veh144" type="veh_passenger" depart="18.90" departLane="best" departSpeed="max">
        <route edges="47758142 47758142-AddedOffRampEdge 1247489574#1 47758164"/>
    </vehicle>
    <vehicle id="veh145" type="veh_passenger" depart="19.03" departLane="best" departSpeed="max">
        <route edges="224622207 318838649-AddedOnRampEdge 318838649 47758165"/>
    </vehicle>
    <vehicle id="veh147" type="veh_passenger" depart="19.30" departLane="best" departSpeed="max">
        <route edges="224622207 318838649-AddedOnRampEdge 318838649 47758165"/>
    </vehicle>
    <vehicle id="veh149" type="veh_passenger" depart="19.56" departLane="best" departSpeed="max">
        <route edges="224622207 318838649-AddedOnRampEdge 318838649 47758165"/>
    </vehicle>
    <vehicle id="veh150" type="veh_passenger" depart="19.69" departLane="best" departSpeed="max">
        <route edges="47758142 47758142-AddedOffRampEdge 1026350957 47758240"/>
    </vehicle>
    <vehicle id="veh152" type="veh_passenger" depart="19.95" departLane="best" departSpeed="max">
        <route edges="47758248 318838649-AddedOnRampEdge 318838649 47758165"/>
    </vehicle>
    <vehicle id="veh153" type="veh_passenger" depart="20.09" departLane="best" departSpeed="max">
        <route edges="47758142 47758142-AddedOffRampEdge 1026350957 47758240"/>
    </vehicle>
    <vehicle id="veh154" type="veh_passenger" depart="20.22" departLane="best" departSpeed="max">
        <route edges="47758142 47758142-AddedOffRampEdge 1026350957 47758240"/>
    </vehicle>
    <vehicle id="veh156" type="veh_passenger" depart="20.48" departLane="best" departSpeed="max">
        <route edges="224622207 318838649-AddedOnRampEdge 318838649 47758165"/>
    </vehicle>
    <vehicle id="veh157" type="veh_passenger" depart="20.61" departLane="best" departSpeed="max">
        <route edges="47758142 47758142-AddedOffRampEdge 1247489574#1 47758164"/>
    </vehicle>
    <vehicle id="veh158" type="veh_passenger" depart="20.74" departLane="best" departSpeed="max">
        <route edges="47758142 47758142-AddedOffRampEdge 1026350957 47758240"/>
    </vehicle>
    <vehicle id="veh159" type="veh_passenger" depart="20.87" departLane="best" departSpeed="max">
        <route edges="224622207 318838649-AddedOnRampEdge 318838649 47758165"/>
    </vehicle>
    <vehicle id="veh160" type="veh_passenger" depart="21.00" departLane="best" departSpeed="max">
        <route edges="47758142 47758142-AddedOffRampEdge 1247489574#1 47758164"/>
    </vehicle>
    <vehicle id="veh162" type="veh_passenger" depart="21.27" departLane="best" departSpeed="max">
        <route edges="224622207 318838649-AddedOnRampEdge 318838649 47758165"/>
    </vehicle>
    <vehicle id="veh163" type="veh_passenger" depart="21.40" departLane="best" departSpeed="max">
        <route edges="47758248 318838649-AddedOnRampEdge 318838649 47758165"/>
    </vehicle>
    <vehicle id="veh164" type="veh_passenger" depart="21.53" departLane="best" departSpeed="max">
        <route edges="47758142 47758142-AddedOffRampEdge 1247489574#1 47758164"/>
    </vehicle>
    <vehicle id="veh165" type="veh_passenger" depart="21.66" departLane="best" departSpeed="max">
        <route edges="47758248 318838649-AddedOnRampEdge 318838649 47758165"/>
    </vehicle>
    <vehicle id="veh168" type="veh_passenger" depart="22.05" departLane="best" departSpeed="max">
        <route edges="47758142 47758142-AddedOffRampEdge 1026350957 47758240"/>
    </vehicle>
    <vehicle id="veh170" type="veh_passenger" depart="22.32" departLane="best" departSpeed="max">
        <route edges="47758142 47758142-AddedOffRampEdge 1026350957 47758240"/>
    </vehicle>
    <vehicle id="veh171" type="veh_passenger" depart="22.45" departLane="best" departSpeed="max">
        <route edges="47758142 47758142-AddedOffRampEdge 1247489574#1 47758164"/>
    </vehicle>
    <vehicle id="veh173" type="veh_passenger" depart="22.71" departLane="best" departSpeed="max">
        <route edges="47758142 47758142-AddedOffRampEdge 1026350957 47758240"/>
    </vehicle>
    <vehicle id="veh174" type="veh_passenger" depart="22.84" departLane="best" departSpeed="max">
        <route edges="47758142 47758142-AddedOffRampEdge 1026350957 47758240"/>
    </vehicle>
    <vehicle id="veh176" type="veh_passenger" depart="23.10" departLane="best" departSpeed="max">
        <route edges="47758142 47758142-AddedOffRampEdge 1247489574#1 47758164"/>
    </vehicle>
    <vehicle id="veh177" type="veh_passenger" depart="23.24" departLane="best" departSpeed="max">
        <route edges="47758142 47758142-AddedOffRampEdge 1026350957 47758240"/>
    </vehicle>
    <vehicle id="veh178" type="veh_passenger" depart="23.37" departLane="best" departSpeed="max">
        <route edges="47758142 47758142-AddedOffRampEdge 1026350957 47758240"/>
    </vehicle>
    <vehicle id="veh179" type="veh_passenger" depart="23.50" departLane="best" departSpeed="max">
        <route edges="47758248 318838649-AddedOnRampEdge 318838649 47758165"/>
    </vehicle>
    <vehicle id="veh180" type="veh_passenger" depart="23.63" departLane="best" departSpeed="max">
        <route edges="47758142 47758142-AddedOffRampEdge 1247489574#1 47758164"/>
    </vehicle>
    <vehicle id="veh181" type="veh_passenger" depart="23.76" departLane="best" departSpeed="max">
        <route edges="47758248 318838649-AddedOnRampEdge 318838649 47758165"/>
    </vehicle>
    <vehicle id="veh182" type="veh_passenger" depart="23.89" departLane="best" departSpeed="max">
        <route edges="47758142 47758142-AddedOffRampEdge 1247489574#1 47758164"/>
    </vehicle>
    <vehicle id="veh183" type="veh_passenger" depart="24.02" departLane="best" departSpeed="max">
        <route edges="47758248 318838649-AddedOnRampEdge 318838649 47758165"/>
    </vehicle>
    <vehicle id="veh184" type="veh_passenger" depart="24.15" departLane="best" departSpeed="max">
        <route edges="47758248 318838649-AddedOnRampEdge 318838649 47758165"/>
    </vehicle>
    <vehicle id="veh185" type="veh_passenger" depart="24.29" departLane="best" departSpeed="max">
        <route edges="47758248 318838649-AddedOnRampEdge 318838649 47758165"/>
    </vehicle>
    <vehicle id="veh186" type="veh_passenger" depart="24.42" departLane="best" departSpeed="max">
        <route edges="47758248 318838649-AddedOnRampEdge 318838649 47758165"/>
    </vehicle>
    <vehicle id="veh189" type="veh_passenger" depart="24.81" departLane="best" departSpeed="max">
        <route edges="47758142 47758142-AddedOffRampEdge 1247489574#1 47758164"/>
    </vehicle>
    <vehicle id="veh190" type="veh_passenger" depart="24.94" departLane="best" departSpeed="max">
        <route edges="47758142 47758142-AddedOffRampEdge 1026350957 47758240"/>
    </vehicle>
    <vehicle id="veh191" type="veh_passenger" depart="25.07" departLane="best" departSpeed="max">
        <route edges="47758248 318838649-AddedOnRampEdge 318838649 47758165"/>
    </vehicle>
    <vehicle id="veh193" type="veh_passenger" depart="25.34" departLane="best" departSpeed="max">
        <route edges="47758142 47758142-AddedOffRampEdge 1247489574#1 47758164"/>
    </vehicle>
    <vehicle id="veh195" type="veh_passenger" depart="25.60" departLane="best" departSpeed="max">
        <route edges="47758142 47758142-AddedOffRampEdge 1247489574#1 47758164"/>
    </vehicle>
    <vehicle id="veh199" type="veh_passenger" depart="26.12" departLane="best" departSpeed="max">
        <route edges="224622207 318838649-AddedOnRampEdge 318838649 47758165"/>
    </vehicle>
    <vehicle id="veh200" type="veh_passenger" depart="26.26" departLane="best" departSpeed="max">
        <route edges="47758248 318838649-AddedOnRampEdge 318838649 47758165"/>
    </vehicle>
    <vehicle id="veh201" type="veh_passenger" depart="26.39" departLane="best" departSpeed="max">
        <route edges="47758142 47758142-AddedOffRampEdge 1247489574#1 47758164"/>
    </vehicle>
    <vehicle id="veh203" type="veh_passenger" depart="26.65" departLane="best" departSpeed="max">
        <route edges="47758248 318838649-AddedOnRampEdge 318838649 47758165"/>
    </vehicle>
    <vehicle id="veh205" type="veh_passenger" depart="26.91" departLane="best" departSpeed="max">
        <route edges="47758142 47758142-AddedOffRampEdge 1247489574#1 47758164"/>
    </vehicle>
    <vehicle id="veh207" type="veh_passenger" depart="27.17" departLane="best" departSpeed="max">
        <route edges="47758142 47758142-AddedOffRampEdge 1247489574#1 47758164"/>
    </vehicle>
    <vehicle id="veh208" type="veh_passenger" depart="27.31" departLane="best" departSpeed="max">
        <route edges="224622207 318838649-AddedOnRampEdge 318838649 47758165"/>
    </vehicle>
    <vehicle id="veh209" type="veh_passenger" depart="27.44" departLane="best" departSpeed="max">
        <route edges="47758142 47758142-AddedOffRampEdge 1026350957 47758240"/>
    </vehicle>
    <vehicle id="veh210" type="veh_passenger" depart="27.57" departLane="best" departSpeed="max">
        <route edges="224622207 318838649-AddedOnRampEdge 318838649 47758165"/>
    </vehicle>
    <vehicle id="veh212" type="veh_passenger" depart="27.83" departLane="best" departSpeed="max">
        <route edges="47758248 318838649-AddedOnRampEdge 318838649 47758165"/>
    </vehicle>
    <vehicle id="veh214" type="veh_passenger" depart="28.09" departLane="best" departSpeed="max">
        <route edges="47758248 318838649-AddedOnRampEdge 318838649 47758165"/>
    </vehicle>
    <vehicle id="veh215" type="veh_passenger" depart="28.22" departLane="best" departSpeed="max">